REMARK  9 active torsions:
REMARK  status: ('A' for Active; 'I' for Inactive)
REMARK    1  A    between atoms: C4_4  and  C8_9 
REMARK    2  A    between atoms: C6_6  and  O1_7 
REMARK    3  A    between atoms: C9_10  and  C10_11 
REMARK    4  A    between atoms: C9_10  and  C18_22 
REMARK    5  A    between atoms: C12_13  and  O4_20 
REMARK    6  A    between atoms: C14_15  and  O2_17 
REMARK       I    between atoms: C18_22  and  N1_23 
REMARK    7  A    between atoms: N1_23  and  C19_24 
REMARK    8  A    between atoms: C19_24  and  C20_25 
REMARK    9  A    between atoms: C20_25  and  C21_26 
ROOT
HETATM    1  C8  UNL     1       0.453   0.553   0.002  1.00  0.00     0.005 C 
HETATM    2  C9  UNL     1      -0.604  -0.273   0.068  1.00  0.00     0.058 C 
ENDROOT
BRANCH   2   3
HETATM    3  C10 UNL     1      -0.713  -1.445  -0.851  1.00  0.00     0.009 A 
HETATM    4  C11 UNL     1      -0.947  -2.731  -0.332  1.00  0.00     0.027 A 
HETATM    5  C12 UNL     1      -1.051  -3.834  -1.197  1.00  0.00     0.121 A 
HETATM    6  C13 UNL     1      -0.920  -3.650  -2.586  1.00  0.00     0.175 A 
HETATM    7  C14 UNL     1      -0.686  -2.365  -3.107  1.00  0.00     0.121 A 
HETATM    8  O3  UNL     1      -1.018  -4.686  -3.398  1.00  0.00    -0.186 OA
HETATM    9  C15 UNL     1      -0.584  -1.264  -2.240  1.00  0.00     0.027 A 
BRANCH   5  10
HETATM   10  O4  UNL     1      -1.272  -5.035  -0.703  1.00  0.00    -0.326 OA
HETATM   11  C17 UNL     1      -2.572  -5.586  -0.840  1.00  0.00     0.181 C 
ENDBRANCH   5  10
BRANCH   7  12
HETATM   12  O2  UNL     1      -0.563  -2.190  -4.408  1.00  0.00    -0.326 OA
HETATM   13  C16 UNL     1      -0.217  -0.895  -4.877  1.00  0.00     0.181 C 
ENDBRANCH   7  12
ENDBRANCH   2   3
BRANCH   2  14
HETATM   14  C18 UNL     1      -1.674  -0.043   1.047  1.00  0.00     0.275 C 
HETATM   15  N1  UNL     1      -1.346   0.182   2.354  1.00  0.00    -0.234 NA
HETATM   16  O6  UNL     1      -2.832  -0.053   0.701  1.00  0.00    -0.266 OA
BRANCH  15  17
HETATM   17  C19 UNL     1      -2.414   0.412   3.336  1.00  0.00     0.134 C 
BRANCH  17  18
HETATM   18  C20 UNL     1      -1.834   0.742   4.711  1.00  0.00     0.053 C 
BRANCH  18  19
HETATM   19  C21 UNL     1      -1.137   2.055   4.711  1.00  0.00    -0.020 A 
HETATM   20  C22 UNL     1      -1.883   3.246   4.711  1.00  0.00    -0.002 A 
HETATM   21  C23 UNL     1      -1.225   4.488   4.711  1.00  0.00     0.027 A 
HETATM   22  C24 UNL     1       0.182   4.543   4.711  1.00  0.00     0.131 A 
HETATM   23  C25 UNL     1       0.924   3.350   4.711  1.00  0.00     0.027 A 
HETATM   24  O5  UNL     1       0.799   5.707   4.711  1.00  0.00    -0.190 OA
HETATM   25  C26 UNL     1       0.268   2.107   4.711  1.00  0.00    -0.002 A 
ENDBRANCH  18  19
ENDBRANCH  17  18
ENDBRANCH  15  17
ENDBRANCH   2  14
BRANCH   1  26
HETATM   26  C4  UNL     1       1.516   0.279  -1.010  1.00  0.00     0.002 A 
HETATM   27  C3  UNL     1       2.109  -0.994  -1.082  1.00  0.00     0.002 A 
HETATM   28  C2  UNL     1       3.109  -1.250  -2.035  1.00  0.00     0.029 A 
HETATM   29  C1  UNL     1       3.520  -0.236  -2.920  1.00  0.00     0.153 A 
HETATM   30  C6  UNL     1       2.926   1.037  -2.850  1.00  0.00     0.119 A 
HETATM   31  O7  UNL     1       4.457  -0.484  -3.811  1.00  0.00    -0.188 OA
HETATM   32  C5  UNL     1       1.926   1.293  -1.894  1.00  0.00     0.026 A 
BRANCH  30  33
HETATM   33  O1  UNL     1       3.305   1.994  -3.674  1.00  0.00    -0.326 OA
HETATM   34  C7  UNL     1       2.594   3.223  -3.643  1.00  0.00     0.181 C 
ENDBRANCH  30  33
ENDBRANCH   1  26
TORSDOF 9
