REMARK  3 active torsions:
REMARK  status: ('A' for Active; 'I' for Inactive)
REMARK    1  A    between atoms: C1_1  and  O4_14 
REMARK    2  A    between atoms: O4_14  and  C11_15 
REMARK    3  A    between atoms: C12_17  and  C16_24 
ROOT
HETATM    1  C1  UNL     1       0.465   0.938   0.404  1.00  0.00     0.101 A 
HETATM    2  C2  UNL     1       0.619  -0.371   0.922  1.00  0.00     0.052 A 
HETATM    3  C3  UNL     1       1.910  -0.908   1.131  1.00  0.00     0.138 A 
HETATM    4  C4  UNL     1       3.053  -0.127   0.816  1.00  0.00     0.087 A 
HETATM    5  C5  UNL     1       2.900   1.188   0.299  1.00  0.00     0.107 A 
HETATM    6  C6  UNL     1       1.605   1.717   0.094  1.00  0.00     0.049 A 
HETATM    7  O1  UNL     1       3.986   1.936   0.000  1.00  0.00    -0.311 OA
HETATM    8  C7  UNL     1       5.254   1.504   0.168  1.00  0.00     0.081 A 
HETATM    9  C8  UNL     1       5.522   0.272   0.652  1.00  0.00     0.062 A 
HETATM   10  C9  UNL     1       4.430  -0.656   1.019  1.00  0.00     0.201 A 
HETATM   11  O2  UNL     1       4.748  -1.742   1.445  1.00  0.00    -0.286 OA
HETATM   12  C10 UNL     1       6.412   2.400  -0.188  1.00  0.00     0.058 C 
HETATM   13  O3  UNL     1       2.037  -2.148   1.621  1.00  0.00    -0.190 OA
ENDROOT
BRANCH   1  14
HETATM   14  O4  UNL     1      -0.762   1.441   0.211  1.00  0.00    -0.303 OA
BRANCH  14  15
HETATM   15  C11 UNL     1      -1.871   0.559   0.326  1.00  0.00     0.274 C 
HETATM   16  O5  UNL     1      -1.750  -0.459  -0.658  1.00  0.00    -0.326 OA
HETATM   17  C12 UNL     1      -2.773  -1.445  -0.627  1.00  0.00     0.184 C 
HETATM   18  C13 UNL     1      -4.143  -0.775  -0.891  1.00  0.00     0.215 C 
HETATM   19  C14 UNL     1      -4.402   0.381   0.100  1.00  0.00     0.220 C 
HETATM   20  O8  UNL     1      -5.158  -1.754  -0.764  1.00  0.00    -0.218 OA
HETATM   21  C15 UNL     1      -3.188   1.336   0.113  1.00  0.00     0.241 C 
HETATM   22  O7  UNL     1      -5.568   1.094  -0.287  1.00  0.00    -0.218 OA
HETATM   23  O6  UNL     1      -3.328   2.281   1.158  1.00  0.00    -0.215 OA
BRANCH  17  24
HETATM   24  C16 UNL     1      -2.408  -2.494  -1.684  1.00  0.00     0.214 C 
HETATM   25  O9  UNL     1      -1.248  -3.168  -1.252  1.00  0.00    -0.218 OA
ENDBRANCH  17  24
ENDBRANCH  14  15
ENDBRANCH   1  14
TORSDOF 3
