REMARK  4 active torsions:
REMARK  status: ('A' for Active; 'I' for Inactive)
REMARK    1  A    between atoms: C7_8  and  O6_43 
REMARK    2  A    between atoms: C8_9  and  O5_41 
REMARK    3  A    between atoms: C15_17  and  O2_18 
REMARK    4  A    between atoms: C24_28  and  O3_31 
ROOT
HETATM    1  C1  UNL     1       5.856   0.883   0.736  1.00  0.00     0.130 C 
HETATM    2  N1  UNL     1       4.848   1.397  -0.225  1.00  0.00    -0.274 NA
HETATM    3  C2  UNL     1       3.793   0.715  -0.535  1.00  0.00     0.060 C 
HETATM    4  C3  UNL     1       3.564  -0.658   0.068  1.00  0.00     0.034 A 
HETATM    5  C4  UNL     1       4.684  -1.338   0.629  1.00  0.00    -0.015 A 
HETATM    6  C5  UNL     1       6.000  -0.652   0.654  1.00  0.00     0.053 C 
HETATM    7  C6  UNL     1       4.549  -2.647   1.139  1.00  0.00     0.022 A 
HETATM    8  C7  UNL     1       3.297  -3.291   1.102  1.00  0.00     0.118 A 
HETATM    9  C8  UNL     1       2.166  -2.619   0.586  1.00  0.00     0.139 A 
HETATM   10  C9  UNL     1       2.277  -1.283   0.084  1.00  0.00     0.125 A 
HETATM   11  O1  UNL     1       1.203  -0.578  -0.342  1.00  0.00    -0.303 OA
HETATM   12  C10 UNL     1      -0.031  -1.023  -0.662  1.00  0.00     0.122 A 
HETATM   13  C11 UNL     1      -1.135  -0.584   0.107  1.00  0.00     0.028 A 
HETATM   14  C12 UNL     1      -2.459  -0.965  -0.234  1.00  0.00     0.012 A 
HETATM   15  C13 UNL     1      -2.654  -1.889  -1.299  1.00  0.00    -0.017 A 
HETATM   16  C14 UNL     1      -1.551  -2.348  -2.059  1.00  0.00     0.022 A 
HETATM   17  C15 UNL     1      -0.244  -1.906  -1.750  1.00  0.00     0.116 A 
HETATM   18  C17 UNL     1      -4.029  -2.371  -1.582  1.00  0.00     0.053 C 
HETATM   19  C18 UNL     1      -5.117  -1.330  -1.236  1.00  0.00     0.130 C 
HETATM   20  N2  UNL     1      -4.856  -0.607   0.035  1.00  0.00    -0.274 NA
HETATM   21  C19 UNL     1      -3.662  -0.414   0.498  1.00  0.00     0.058 C 
HETATM   22  C20 UNL     1      -3.547   0.383   1.793  1.00  0.00     0.072 C 
HETATM   23  C21 UNL     1      -3.594   1.871   1.590  1.00  0.00    -0.014 A 
HETATM   24  C22 UNL     1      -2.477   2.533   1.061  1.00  0.00     0.023 A 
HETATM   25  C23 UNL     1      -2.459   3.934   0.844  1.00  0.00     0.122 A 
HETATM   26  C24 UNL     1      -3.608   4.672   1.191  1.00  0.00     0.117 A 
HETATM   27  C25 UNL     1      -4.738   4.020   1.723  1.00  0.00     0.026 A 
HETATM   28  C26 UNL     1      -4.734   2.627   1.920  1.00  0.00    -0.002 A 
HETATM   29  O4  UNL     1      -1.404   4.576   0.324  1.00  0.00    -0.305 OA
HETATM   30  C28 UNL     1      -0.340   3.916  -0.119  1.00  0.00     0.100 A 
HETATM   31  C29 UNL     1       0.695   3.543   0.762  1.00  0.00     0.024 A 
HETATM   32  C30 UNL     1       1.746   2.723   0.315  1.00  0.00    -0.002 A 
HETATM   33  C31 UNL     1       1.783   2.283  -1.027  1.00  0.00    -0.016 A 
HETATM   34  C32 UNL     1       2.840   1.346  -1.545  1.00  0.00     0.072 C 
HETATM   35  C33 UNL     1       0.793   2.732  -1.922  1.00  0.00    -0.002 A 
HETATM   36  C34 UNL     1      -0.256   3.549  -1.475  1.00  0.00     0.024 A 
ENDROOT
BRANCH   8  37
HETATM   37  O6  UNL     1       3.182  -4.543   1.567  1.00  0.00    -0.326 OA
HETATM   38  C36 UNL     1       4.354  -5.191   2.035  1.00  0.00     0.181 C 
ENDBRANCH   8  37
BRANCH   9  39
HETATM   39  O5  UNL     1       0.992  -3.264   0.606  1.00  0.00    -0.324 OA
HETATM   40  C35 UNL     1       0.959  -4.604   0.137  1.00  0.00     0.182 C 
ENDBRANCH   9  39
BRANCH  17  41
HETATM   41  O2  UNL     1       0.793  -2.330  -2.490  1.00  0.00    -0.326 OA
HETATM   42  C16 UNL     1       0.521  -3.191  -3.584  1.00  0.00     0.181 C 
ENDBRANCH  17  41
BRANCH  26  43
HETATM   43  O3  UNL     1      -3.631   5.977   1.016  1.00  0.00    -0.326 OA
HETATM   44  C27 UNL     1      -4.859   6.656   1.225  1.00  0.00     0.181 C 
ENDBRANCH  26  43
TORSDOF 4
