REMARK  5 active torsions:
REMARK  status: ('A' for Active; 'I' for Inactive)
REMARK    1  A    between atoms: C7_7  and  O3_16 
REMARK    2  A    between atoms: O3_16  and  C14_17 
REMARK    3  A    between atoms: C20_26  and  O9_33 
REMARK    4  A    between atoms: C21_27  and  O8_31 
REMARK    5  A    between atoms: C22_28  and  O7_29 
ROOT
HETATM    1  C1  UNL     1      -0.452   1.055  -0.751  1.00  0.00     0.002 A 
HETATM    2  C2  UNL     1      -0.745  -0.383  -0.435  1.00  0.00     0.020 A 
HETATM    3  C3  UNL     1       0.080  -1.406  -0.906  1.00  0.00    -0.018 A 
HETATM    4  C4  UNL     1       1.420  -1.160  -1.575  1.00  0.00     0.036 C 
HETATM    5  C5  UNL     1       2.548  -0.969  -0.537  1.00  0.00     0.087 C 
HETATM    6  C6  UNL     1       2.714   0.504  -0.124  1.00  0.00     0.072 C 
HETATM    7  C7  UNL     1       1.612   1.109   0.753  1.00  0.00     0.149 C 
HETATM    8  C8  UNL     1       0.617   1.776  -0.188  1.00  0.00     0.007 A 
HETATM    9  C9  UNL     1       0.805   3.121  -0.554  1.00  0.00     0.024 A 
HETATM   10  C10 UNL     1      -0.099   3.717  -1.426  1.00  0.00     0.119 A 
HETATM   11  C11 UNL     1      -1.160   3.001  -1.963  1.00  0.00     0.119 A 
HETATM   12  C12 UNL     1      -1.347   1.661  -1.650  1.00  0.00     0.026 A 
HETATM   13  O1  UNL     1      -1.891   3.822  -2.799  1.00  0.00    -0.300 OA
HETATM   14  C13 UNL     1      -1.272   5.115  -2.782  1.00  0.00     0.304 A 
HETATM   15  O2  UNL     1      -0.134   5.008  -1.917  1.00  0.00    -0.300 OA
HETATM   16  C16 UNL     1       4.151   0.519   0.382  1.00  0.00     0.155 C 
HETATM   17  O5  UNL     1       4.828  -0.384  -0.455  1.00  0.00    -0.302 OA
HETATM   18  C17 UNL     1       3.949  -1.200  -1.102  1.00  0.00     0.271 C 
HETATM   19  O6  UNL     1       4.253  -2.017  -1.942  1.00  0.00    -0.264 OA
HETATM   20  C18 UNL     1       2.429  -1.976   0.628  1.00  0.00     0.010 C 
HETATM   21  C19 UNL     1      -0.377  -2.714  -0.734  1.00  0.00     0.022 A 
HETATM   22  C20 UNL     1      -1.566  -3.052  -0.075  1.00  0.00     0.118 A 
HETATM   23  C21 UNL     1      -2.364  -1.998   0.429  1.00  0.00     0.138 A 
HETATM   24  C22 UNL     1      -1.935  -0.661   0.262  1.00  0.00     0.118 A 
ENDROOT
BRANCH   7  25
HETATM   25  O3  UNL     1       2.194   2.007   1.668  1.00  0.00    -0.300 OA
BRANCH  25  26
HETATM   26  C14 UNL     1       1.483   2.606   2.667  1.00  0.00     0.273 C 
HETATM   27  O4  UNL     1       1.984   3.433   3.400  1.00  0.00    -0.264 OA
HETATM   28  C15 UNL     1       0.042   2.159   2.848  1.00  0.00     0.106 C 
ENDBRANCH  25  26
ENDBRANCH   7  25
BRANCH  24  29
HETATM   29  O7  UNL     1      -2.651   0.413   0.745  1.00  0.00    -0.326 OA
HETATM   30  C23 UNL     1      -4.020   0.494   0.421  1.00  0.00     0.181 C 
ENDBRANCH  24  29
BRANCH  23  31
HETATM   31  O8  UNL     1      -3.524  -2.175   1.150  1.00  0.00    -0.324 OA
HETATM   32  C24 UNL     1      -3.867  -3.416   1.718  1.00  0.00     0.182 C 
ENDBRANCH  23  31
BRANCH  22  33
HETATM   33  O9  UNL     1      -1.990  -4.353   0.034  1.00  0.00    -0.326 OA
HETATM   34  C25 UNL     1      -1.338  -5.367  -0.694  1.00  0.00     0.181 C 
ENDBRANCH  22  33
TORSDOF 5
