REMARK  3 active torsions:
REMARK  status: ('A' for Active; 'I' for Inactive)
REMARK    1  A    between atoms: C6_6  and  C7_7 
REMARK    2  A    between atoms: C7_7  and  C8_8 
REMARK    3  A    between atoms: C8_8  and  N1_9 
ROOT
HETATM    1  C1  UNL     1      -2.264   0.031  -0.537  1.00  0.00     0.022 A 
HETATM    2  C2  UNL     1      -2.416   1.434  -0.467  1.00  0.00     0.119 A 
HETATM    3  C3  UNL     1      -1.285   2.256  -0.410  1.00  0.00     0.119 A 
HETATM    4  C4  UNL     1       0.029   1.674  -0.426  1.00  0.00     0.024 A 
HETATM    5  C5  UNL     1       0.162   0.244  -0.492  1.00  0.00    -0.002 A 
HETATM    6  C6  UNL     1      -0.996  -0.574  -0.549  1.00  0.00    -0.018 A 
HETATM    7  C11 UNL     1       1.445  -0.363  -0.502  1.00  0.00    -0.000 A 
HETATM    8  C12 UNL     1       2.607   0.426  -0.447  1.00  0.00    -0.000 A 
HETATM    9  C13 UNL     1       2.508   1.832  -0.385  1.00  0.00     0.000 A 
HETATM   10  C14 UNL     1       1.225   2.479  -0.375  1.00  0.00     0.002 A 
HETATM   11  C15 UNL     1       1.205   3.906  -0.312  1.00  0.00     0.000 A 
HETATM   12  C16 UNL     1       2.402   4.653  -0.264  1.00  0.00     0.000 A 
HETATM   13  C17 UNL     1       3.650   3.998  -0.273  1.00  0.00     0.000 A 
HETATM   14  C18 UNL     1       3.707   2.590  -0.334  1.00  0.00     0.000 A 
HETATM   15  O1  UNL     1      -1.709   3.524  -0.350  1.00  0.00    -0.300 OA
HETATM   16  C19 UNL     1      -3.151   3.569  -0.359  1.00  0.00     0.304 A 
HETATM   17  O2  UNL     1      -3.520   2.180  -0.439  1.00  0.00    -0.300 OA
ENDROOT
BRANCH   6  18
HETATM   18  C7  UNL     1      -0.920  -2.047  -0.623  1.00  0.00     0.062 C 
BRANCH  18  19
HETATM   19  C8  UNL     1      -0.625  -2.664   0.746  1.00  0.00     0.255 C 
BRANCH  19  20
HETATM   20  N1  UNL     1      -0.324  -4.078   0.611  1.00  0.00     0.142 N 
HETATM   21  C9  UNL     1       0.305  -4.582   1.818  1.00  0.00     0.285 C 
HETATM   22  C10 UNL     1      -1.533  -4.828   0.318  1.00  0.00     0.285 C 
ENDBRANCH  19  20
ENDBRANCH  18  19
ENDBRANCH   6  18
TORSDOF 3
