REMARK  2 active torsions:
REMARK  status: ('A' for Active; 'I' for Inactive)
REMARK    1  A    between atoms: C1_1  and  O3_21 
REMARK    2  A    between atoms: C2_2  and  O2_19 
ROOT
HETATM    1  C1  UNL     1      -0.797  -1.764  -1.010  1.00  0.00     0.116 A 
HETATM    2  C2  UNL     1       0.389  -1.027  -0.734  1.00  0.00     0.113 A 
HETATM    3  C3  UNL     1       0.340   0.035   0.217  1.00  0.00     0.007 A 
HETATM    4  C4  UNL     1      -0.859   0.305   0.881  1.00  0.00    -0.006 A 
HETATM    5  C5  UNL     1      -2.033  -0.389   0.562  1.00  0.00    -0.021 A 
HETATM    6  C6  UNL     1      -2.016  -1.443  -0.371  1.00  0.00     0.022 A 
HETATM    7  C7  UNL     1      -3.244   0.092   1.266  1.00  0.00     0.052 C 
HETATM    8  C8  UNL     1      -3.230   1.647   1.398  1.00  0.00     0.125 C 
HETATM    9  N1  UNL     1      -1.975   2.225   1.957  1.00  0.00    -0.293 NA
HETATM   10  C9  UNL     1      -0.752   1.393   1.893  1.00  0.00     0.121 C 
HETATM   11  C10 UNL     1       0.563   2.094   1.441  1.00  0.00     0.041 C 
HETATM   12  C11 UNL     1       1.406   1.010   0.680  1.00  0.00     0.060 A 
HETATM   13  C12 UNL     1       2.336   0.268   1.635  1.00  0.00    -0.015 A 
HETATM   14  C13 UNL     1       3.652   0.115   1.395  1.00  0.00     0.038 A 
HETATM   15  C14 UNL     1       4.277   0.676   0.189  1.00  0.00     0.195 A 
HETATM   16  C15 UNL     1       3.440   1.434  -0.750  1.00  0.00     0.038 A 
HETATM   17  C16 UNL     1       2.121   1.598  -0.533  1.00  0.00    -0.015 A 
HETATM   18  O1  UNL     1       5.455   0.518  -0.025  1.00  0.00    -0.287 OA
ENDROOT
BRANCH   2  19
HETATM   19  O2  UNL     1       1.465  -1.424  -1.428  1.00  0.00    -0.326 OA
HETATM   20  C17 UNL     1       1.512  -1.127  -2.815  1.00  0.00     0.181 C 
ENDBRANCH   2  19
BRANCH   1  21
HETATM   21  O3  UNL     1      -0.769  -2.771  -1.895  1.00  0.00    -0.326 OA
HETATM   22  C18 UNL     1      -1.947  -3.547  -2.057  1.00  0.00     0.181 C 
ENDBRANCH   1  21
TORSDOF 2
