REMARK  2 active torsions:
REMARK  status: ('A' for Active; 'I' for Inactive)
REMARK    1  A    between atoms: C1_1  and  O4_24 
REMARK    2  A    between atoms: C15_16  and  O2_20 
ROOT
HETATM    1  C1  UNL     1      -3.399  -2.270   1.299  1.00  0.00     0.119 A 
HETATM    2  C2  UNL     1      -2.801  -1.080   1.779  1.00  0.00     0.151 A 
HETATM    3  C3  UNL     1      -2.059  -0.240   0.904  1.00  0.00     0.032 A 
HETATM    4  C4  UNL     1      -1.938  -0.598  -0.469  1.00  0.00    -0.020 A 
HETATM    5  C5  UNL     1      -2.531  -1.797  -0.938  1.00  0.00    -0.002 A 
HETATM    6  C6  UNL     1      -3.260  -2.629  -0.059  1.00  0.00     0.026 A 
HETATM    7  C7  UNL     1      -1.215   0.264  -1.430  1.00  0.00     0.057 C 
HETATM    8  C8  UNL     1      -0.240   1.281  -0.801  1.00  0.00     0.193 C 
HETATM    9  N1  UNL     1      -0.856   2.008   0.426  1.00  0.00    -0.002 N 
HETATM   10  C9  UNL     1      -1.416   0.982   1.453  1.00  0.00     0.245 C 
HETATM   11  C10 UNL     1       0.217   2.881   1.150  1.00  0.00     0.217 C 
HETATM   12  C11 UNL     1       1.439   3.230   0.287  1.00  0.00     0.033 C 
HETATM   13  C12 UNL     1       2.111   1.996  -0.361  1.00  0.00     0.006 C 
HETATM   14  C13 UNL     1       1.170   0.773  -0.434  1.00  0.00     0.032 C 
HETATM   15  C14 UNL     1       1.789  -0.301  -1.344  1.00  0.00     0.034 C 
HETATM   16  C15 UNL     1       3.174  -0.727  -0.811  1.00  0.00     0.146 C 
HETATM   17  C16 UNL     1       4.117   0.482  -0.588  1.00  0.00     0.179 C 
HETATM   18  C17 UNL     1       3.455   1.586   0.262  1.00  0.00     0.036 C 
HETATM   19  O1  UNL     1       5.305   0.066   0.061  1.00  0.00    -0.221 OA
HETATM   20  C19 UNL     1      -2.000   2.908  -0.066  1.00  0.00     0.250 C 
HETATM   21  O3  UNL     1      -2.936  -0.756   3.074  1.00  0.00    -0.188 OA
ENDROOT
BRANCH   1  22
HETATM   22  O4  UNL     1      -4.098  -3.057   2.129  1.00  0.00    -0.326 OA
HETATM   23  C20 UNL     1      -4.684  -4.235   1.596  1.00  0.00     0.181 C 
ENDBRANCH   1  22
BRANCH  16  24
HETATM   24  O2  UNL     1       3.750  -1.635  -1.732  1.00  0.00    -0.351 OA
HETATM   25  C18 UNL     1       3.039  -2.848  -1.834  1.00  0.00     0.174 C 
ENDBRANCH  16  24
TORSDOF 2
