REMARK  15 active torsions:
REMARK  status: ('A' for Active; 'I' for Inactive)
REMARK    1  A    between atoms: C1_1  and  C2_2 
REMARK    2  A    between atoms: C1_1  and  C18_20 
REMARK    3  A    between atoms: C2_2  and  C3_3 
REMARK    4  A    between atoms: C3_3  and  C4_4 
REMARK    5  A    between atoms: C4_4  and  C5_5 
REMARK    6  A    between atoms: C5_5  and  C6_6 
REMARK    7  A    between atoms: C6_6  and  C7_7 
REMARK    8  A    between atoms: C8_8  and  C9_9 
REMARK    9  A    between atoms: C9_9  and  C10_10 
REMARK   10  A    between atoms: C10_10  and  C11_11 
REMARK   11  A    between atoms: C11_11  and  C12_12 
REMARK   12  A    between atoms: C12_12  and  C13_13 
REMARK   13  A    between atoms: C13_13  and  C14_14 
REMARK   14  A    between atoms: C14_14  and  C15_15 
REMARK   15  A    between atoms: C15_15  and  C16_16 
ROOT
HETATM    1  C7  UNL     1       2.547  -0.574  -0.318  1.00  0.00    -0.048 A 
HETATM    2  C8  UNL     1       2.363   0.750  -0.361  1.00  0.00    -0.048 A 
HETATM    3  C17 UNL     1       3.809   0.273  -0.229  1.00  0.00     0.043 A 
ENDROOT
BRANCH   2   4
HETATM    4  C9  UNL     1       0.959   1.295  -0.496  1.00  0.00     0.022 C 
BRANCH   4   5
HETATM    5  C10 UNL     1       0.301   1.553   0.861  1.00  0.00     0.004 C 
BRANCH   5   6
HETATM    6  C11 UNL     1       1.018   2.635   1.668  1.00  0.00     0.000 C 
BRANCH   6   7
HETATM    7  C12 UNL     1       0.346   2.908   3.014  1.00  0.00     0.000 C 
BRANCH   7   8
HETATM    8  C13 UNL     1       1.062   3.988   3.824  1.00  0.00     0.001 C 
BRANCH   8   9
HETATM    9  C14 UNL     1       0.391   4.264   5.168  1.00  0.00     0.011 C 
BRANCH   9  10
HETATM   10  C15 UNL     1       1.109   5.342   5.979  1.00  0.00     0.098 C 
BRANCH  10  11
HETATM   11  C16 UNL     1       0.437   5.615   7.297  1.00  0.00     0.185 C 
HETATM   12  O1  UNL     1       1.002   6.566   8.035  1.00  0.00    -0.647 OA
HETATM   13  O2  UNL     1      -0.545   4.998   7.633  1.00  0.00    -0.647 OA
ENDBRANCH  10  11
ENDBRANCH   9  10
ENDBRANCH   8   9
ENDBRANCH   7   8
ENDBRANCH   6   7
ENDBRANCH   5   6
ENDBRANCH   4   5
ENDBRANCH   2   4
BRANCH   1  14
HETATM   14  C6  UNL     1       1.328  -1.484  -0.400  1.00  0.00     0.022 C 
BRANCH  14  15
HETATM   15  C5  UNL     1       1.070  -1.984  -1.822  1.00  0.00     0.004 C 
BRANCH  15  16
HETATM   16  C4  UNL     1      -0.281  -2.686  -1.965  1.00  0.00     0.000 C 
BRANCH  16  17
HETATM   17  C3  UNL     1      -0.539  -3.186  -3.387  1.00  0.00     0.000 C 
BRANCH  17  18
HETATM   18  C2  UNL     1      -1.889  -3.893  -3.527  1.00  0.00     0.000 C 
BRANCH  18  19
HETATM   19  C1  UNL     1      -2.147  -4.391  -4.949  1.00  0.00     0.000 C 
BRANCH  19  20
HETATM   20  C18 UNL     1      -3.496  -5.098  -5.090  1.00  0.00     0.000 C 
HETATM   21  C19 UNL     1      -3.756  -5.596  -6.512  1.00  0.00     0.000 C 
ENDBRANCH  19  20
ENDBRANCH  18  19
ENDBRANCH  17  18
ENDBRANCH  16  17
ENDBRANCH  15  16
ENDBRANCH  14  15
ENDBRANCH   1  14
TORSDOF 15
