REMARK  10 active torsions:
REMARK  status: ('A' for Active; 'I' for Inactive)
REMARK    1  A    between atoms: C2_2  and  C32_43 
REMARK    2  A    between atoms: C12_12  and  O1_18 
REMARK    3  A    between atoms: O1_18  and  C18_19 
REMARK    4  A    between atoms: C19_20  and  O6_29 
REMARK    5  A    between atoms: C22_23  and  C23_25 
REMARK    6  A    between atoms: O6_29  and  C24_30 
REMARK    7  A    between atoms: C25_32  and  C29_39 
REMARK    8  A    between atoms: C32_43  and  O12_44 
REMARK    9  A    between atoms: O12_44  and  C33_45 
REMARK   10  A    between atoms: C34_47  and  C38_54 
ROOT
HETATM    1  C1  UNL     1       5.326  -0.342  -0.061  1.00  0.00     0.009 C 
HETATM    2  C2  UNL     1       4.526  -1.631  -0.383  1.00  0.00     0.078 C 
HETATM    3  C3  UNL     1       3.092  -1.289  -0.902  1.00  0.00     0.009 C 
HETATM    4  C4  UNL     1       2.506  -0.004  -0.250  1.00  0.00     0.001 C 
HETATM    5  C5  UNL     1       3.391   1.205  -0.668  1.00  0.00     0.000 C 
HETATM    6  C6  UNL     1       4.873   0.856  -0.902  1.00  0.00     0.001 C 
HETATM    7  C7  UNL     1       1.039   0.221  -0.719  1.00  0.00     0.001 C 
HETATM    8  C8  UNL     1       0.127  -1.037  -0.506  1.00  0.00     0.006 C 
HETATM    9  C9  UNL     1       0.875  -2.297  -0.047  1.00  0.00     0.000 C 
HETATM   10  C10 UNL     1       2.117  -2.496  -0.922  1.00  0.00     0.001 C 
HETATM   11  C11 UNL     1      -1.051  -0.728   0.449  1.00  0.00     0.032 C 
HETATM   12  C12 UNL     1      -1.824   0.301  -0.391  1.00  0.00     0.110 C 
HETATM   13  C13 UNL     1      -1.103   1.662  -0.357  1.00  0.00     0.031 C 
HETATM   14  C14 UNL     1       0.410   1.500  -0.104  1.00  0.00     0.003 C 
HETATM   15  C15 UNL     1      -1.768  -0.326  -1.758  1.00  0.00    -0.020 C 
HETATM   16  C16 UNL     1      -0.660  -1.330  -1.803  1.00  0.00     0.024 C 
HETATM   17  C17 UNL     1      -2.576  -0.035  -2.795  1.00  0.00    -0.007 C 
HETATM   18  C30 UNL     1       2.541  -0.127   1.285  1.00  0.00     0.000 C 
HETATM   19  C31 UNL     1       5.264  -2.447  -1.451  1.00  0.00     0.010 C 
ENDROOT
BRANCH  12  20
HETATM   20  O1  UNL     1      -3.152   0.422   0.084  1.00  0.00    -0.330 OA
BRANCH  20  21
HETATM   21  C18 UNL     1      -3.777   1.627  -0.314  1.00  0.00     0.267 C 
HETATM   22  C19 UNL     1      -5.250   1.358  -0.727  1.00  0.00     0.207 C 
HETATM   23  C20 UNL     1      -6.205   1.201   0.480  1.00  0.00     0.217 C 
HETATM   24  C21 UNL     1      -5.943   2.266   1.574  1.00  0.00     0.215 C 
HETATM   25  O5  UNL     1      -6.022  -0.082   1.045  1.00  0.00    -0.218 OA
HETATM   26  C22 UNL     1      -4.439   2.473   1.877  1.00  0.00     0.184 C 
HETATM   27  O4  UNL     1      -6.510   3.498   1.164  1.00  0.00    -0.218 OA
HETATM   28  O2  UNL     1      -3.684   2.654   0.676  1.00  0.00    -0.326 OA
BRANCH  22  29
HETATM   29  O6  UNL     1      -5.701   2.432  -1.531  1.00  0.00    -0.324 OA
BRANCH  29  30
HETATM   30  C24 UNL     1      -5.330   2.303  -2.889  1.00  0.00     0.270 C 
HETATM   31  O7  UNL     1      -4.088   2.983  -3.074  1.00  0.00    -0.326 OA
HETATM   32  C25 UNL     1      -3.799   3.486  -4.381  1.00  0.00     0.184 C 
HETATM   33  C26 UNL     1      -4.504   2.693  -5.510  1.00  0.00     0.215 C 
HETATM   34  C27 UNL     1      -6.041   2.641  -5.315  1.00  0.00     0.220 C 
HETATM   35  O10 UNL     1      -3.982   1.375  -5.541  1.00  0.00    -0.218 OA
HETATM   36  C28 UNL     1      -6.436   2.850  -3.828  1.00  0.00     0.241 C 
HETATM   37  O9  UNL     1      -6.648   3.656  -6.094  1.00  0.00    -0.218 OA
HETATM   38  O8  UNL     1      -7.666   2.190  -3.586  1.00  0.00    -0.215 OA
BRANCH  32  39
HETATM   39  C29 UNL     1      -4.189   4.969  -4.391  1.00  0.00     0.214 C 
HETATM   40  O11 UNL     1      -3.133   5.707  -3.822  1.00  0.00    -0.218 OA
ENDBRANCH  32  39
ENDBRANCH  29  30
ENDBRANCH  22  29
BRANCH  26  41
HETATM   41  C23 UNL     1      -3.830   1.344   2.719  1.00  0.00     0.214 C 
HETATM   42  O3  UNL     1      -2.451   1.594   2.861  1.00  0.00    -0.218 OA
ENDBRANCH  26  41
ENDBRANCH  20  21
ENDBRANCH  12  20
BRANCH   2  43
HETATM   43  C32 UNL     1       4.490  -2.482   0.867  1.00  0.00     0.273 C 
HETATM   44  O18 UNL     1       3.445  -2.920   1.293  1.00  0.00    -0.264 OA
BRANCH  43  45
HETATM   45  O12 UNL     1       5.672  -2.703   1.436  1.00  0.00    -0.273 OA
BRANCH  45  46
HETATM   46  C33 UNL     1       5.567  -3.482   2.619  1.00  0.00     0.276 C 
HETATM   47  O13 UNL     1       4.965  -2.693   3.637  1.00  0.00    -0.326 OA
HETATM   48  C34 UNL     1       4.756  -3.365   4.873  1.00  0.00     0.184 C 
HETATM   49  C35 UNL     1       6.119  -3.820   5.447  1.00  0.00     0.215 C 
HETATM   50  C36 UNL     1       6.899  -4.680   4.430  1.00  0.00     0.220 C 
HETATM   51  O16 UNL     1       5.889  -4.564   6.629  1.00  0.00    -0.218 OA
HETATM   52  C37 UNL     1       6.969  -3.943   3.074  1.00  0.00     0.241 C 
HETATM   53  O15 UNL     1       8.211  -4.926   4.912  1.00  0.00    -0.218 OA
HETATM   54  O14 UNL     1       7.508  -4.799   2.082  1.00  0.00    -0.215 OA
BRANCH  48  55
HETATM   55  C38 UNL     1       4.020  -2.387   5.795  1.00  0.00     0.214 C 
HETATM   56  O17 UNL     1       2.721  -2.193   5.285  1.00  0.00    -0.218 OA
ENDBRANCH  48  55
ENDBRANCH  45  46
ENDBRANCH  43  45
ENDBRANCH   2  43
TORSDOF 10
