REMARK  7 active torsions:
REMARK  status: ('A' for Active; 'I' for Inactive)
REMARK    1  A    between atoms: C1_1  and  O8_28 
REMARK    2  A    between atoms: C3_3  and  O7_26 
REMARK    3  A    between atoms: C6_6  and  O1_7 
REMARK    4  A    between atoms: C8_10  and  C11_14 
REMARK    5  A    between atoms: C13_16  and  O6_24 
REMARK    6  A    between atoms: C14_17  and  O5_22 
REMARK    7  A    between atoms: C15_18  and  O4_20 
ROOT
HETATM    1  C1  UNL     1      -3.725   2.290   0.081  1.00  0.00     0.120 C 
HETATM    2  C2  UNL     1      -3.220   3.586  -0.034  1.00  0.00     0.051 C 
HETATM    3  C3  UNL     1      -1.864   3.870  -0.202  1.00  0.00     0.101 C 
HETATM    4  C4  UNL     1      -1.040   2.762  -0.468  1.00  0.00     0.086 C 
HETATM    5  C5  UNL     1      -1.500   1.430  -0.417  1.00  0.00     0.129 C 
HETATM    6  C6  UNL     1      -2.879   1.197  -0.201  1.00  0.00     0.139 C 
HETATM    7  O2  UNL     1      -0.653   0.382  -0.659  1.00  0.00    -0.305 OA
HETATM    8  C8  UNL     1       0.702   0.547  -0.569  1.00  0.00     0.103 C 
HETATM    9  C9  UNL     1       1.250   1.781  -0.660  1.00  0.00     0.067 C 
HETATM   10  C10 UNL     1       0.402   2.986  -0.753  1.00  0.00     0.202 C 
HETATM   11  O3  UNL     1       0.937   4.077  -0.936  1.00  0.00    -0.286 OA
ENDROOT
BRANCH   8  12
HETATM   12  C11 UNL     1       1.575  -0.642  -0.404  1.00  0.00     0.027 A 
HETATM   13  C12 UNL     1       1.004  -1.918  -0.355  1.00  0.00     0.028 A 
HETATM   14  C13 UNL     1       1.720  -3.101  -0.138  1.00  0.00     0.118 A 
HETATM   15  C14 UNL     1       3.129  -3.028   0.001  1.00  0.00     0.138 A 
HETATM   16  C15 UNL     1       3.761  -1.762  -0.079  1.00  0.00     0.118 A 
HETATM   17  C16 UNL     1       2.965  -0.619  -0.256  1.00  0.00     0.028 A 
BRANCH  14  18
HETATM   18  O6  UNL     1       0.939  -4.238  -0.124  1.00  0.00    -0.326 OA
HETATM   19  C19 UNL     1       1.494  -5.529  -0.182  1.00  0.00     0.181 C 
ENDBRANCH  14  18
BRANCH  15  20
HETATM   20  O5  UNL     1       3.803  -4.215   0.174  1.00  0.00    -0.324 OA
HETATM   21  C18 UNL     1       5.200  -4.326   0.070  1.00  0.00     0.182 C 
ENDBRANCH  15  20
BRANCH  16  22
HETATM   22  O4  UNL     1       5.125  -1.667   0.069  1.00  0.00    -0.326 OA
HETATM   23  C17 UNL     1       5.757  -0.409   0.104  1.00  0.00     0.181 C 
ENDBRANCH  16  22
ENDBRANCH   8  12
BRANCH   6  24
HETATM   24  O1  UNL     1      -3.509  -0.028  -0.182  1.00  0.00    -0.324 OA
HETATM   25  C7  UNL     1      -2.792  -1.234  -0.242  1.00  0.00     0.182 C 
ENDBRANCH   6  24
BRANCH   3  26
HETATM   26  O7  UNL     1      -1.463   5.173  -0.345  1.00  0.00    -0.328 OA
HETATM   27  C20 UNL     1      -1.020   5.755   0.860  1.00  0.00     0.181 C 
ENDBRANCH   3  26
BRANCH   1  28
HETATM   28  O8  UNL     1      -5.082   2.112   0.201  1.00  0.00    -0.326 OA
HETATM   29  C21 UNL     1      -5.510   1.902   1.527  1.00  0.00     0.181 C 
ENDBRANCH   1  28
TORSDOF 7
