REMARK  4 active torsions:
REMARK  status: ('A' for Active; 'I' for Inactive)
REMARK    1  A    between atoms: C2_2  and  O5_28 
REMARK    2  A    between atoms: C15_15  and  C18_19 
REMARK    3  A    between atoms: O5_28  and  C24_29 
REMARK    4  A    between atoms: C27_33  and  O8_36 
ROOT
HETATM    1  C1  UNL     1       1.211  -0.494  -0.514  1.00  0.00     0.030 C 
HETATM    2  C2  UNL     1       1.609   0.940  -0.131  1.00  0.00     0.118 C 
HETATM    3  C3  UNL     1       0.687   1.510   0.961  1.00  0.00     0.030 C 
HETATM    4  C4  UNL     1       0.525   0.572   2.182  1.00  0.00     0.002 C 
HETATM    5  C5  UNL     1       0.102  -0.873   1.789  1.00  0.00     0.000 C 
HETATM    6  C6  UNL     1       1.090  -1.404   0.721  1.00  0.00     0.003 C 
HETATM    7  C7  UNL     1      -1.379  -0.848   1.293  1.00  0.00     0.002 C 
HETATM    8  C8  UNL     1      -2.340  -0.283   2.375  1.00  0.00     0.028 C 
HETATM    9  C9  UNL     1      -1.908   1.145   2.760  1.00  0.00     0.002 C 
HETATM   10  C10 UNL     1      -0.440   1.188   3.213  1.00  0.00     0.000 C 
HETATM   11  C11 UNL     1      -3.867  -0.516   2.051  1.00  0.00     0.129 C 
HETATM   12  C12 UNL     1      -4.193  -0.932   0.586  1.00  0.00     0.032 C 
HETATM   13  C13 UNL     1      -3.233  -1.998   0.010  1.00  0.00     0.003 C 
HETATM   14  C14 UNL     1      -1.920  -2.187   0.783  1.00  0.00     0.000 C 
HETATM   15  C15 UNL     1      -4.109   0.441  -0.119  1.00  0.00     0.054 C 
HETATM   16  C16 UNL     1      -4.883   1.369   0.830  1.00  0.00     0.158 C 
HETATM   17  C17 UNL     1      -4.797   0.707   2.211  1.00  0.00     0.064 C 
HETATM   18  O1  UNL     1      -4.318   2.666   0.844  1.00  0.00    -0.223 OA
HETATM   19  C22 UNL     1      -5.649  -1.418   0.426  1.00  0.00     0.003 C 
HETATM   20  O4  UNL     1      -4.336  -1.539   2.920  1.00  0.00    -0.226 OA
HETATM   21  C23 UNL     1       0.219  -1.797   3.012  1.00  0.00     0.000 C 
ENDROOT
BRANCH   2  22
HETATM   22  O5  UNL     1       2.947   0.953   0.332  1.00  0.00    -0.332 OA
BRANCH  22  23
HETATM   23  C24 UNL     1       3.895   0.686  -0.691  1.00  0.00     0.270 C 
HETATM   24  O6  UNL     1       4.299  -0.676  -0.654  1.00  0.00    -0.329 OA
HETATM   25  C25 UNL     1       5.025  -1.131  -1.797  1.00  0.00     0.151 C 
HETATM   26  C26 UNL     1       5.965  -0.031  -2.387  1.00  0.00     0.209 C 
HETATM   27  C30 UNL     1       4.021  -1.734  -2.793  1.00  0.00     0.035 C 
HETATM   28  C27 UNL     1       6.393   0.969  -1.289  1.00  0.00     0.183 C 
HETATM   29  O9  UNL     1       5.320   0.662  -3.445  1.00  0.00    -0.218 OA
HETATM   30  C28 UNL     1       5.150   1.613  -0.609  1.00  0.00     0.238 C 
HETATM   31  O7  UNL     1       5.502   1.928   0.731  1.00  0.00    -0.215 OA
BRANCH  28  32
HETATM   32  O8  UNL     1       7.264   1.965  -1.799  1.00  0.00    -0.349 OA
HETATM   33  C29 UNL     1       8.484   1.443  -2.271  1.00  0.00     0.174 C 
ENDBRANCH  28  32
ENDBRANCH  22  23
ENDBRANCH   2  22
BRANCH  15  34
HETATM   34  C18 UNL     1      -4.637   0.465  -1.535  1.00  0.00    -0.007 A 
HETATM   35  C19 UNL     1      -4.193  -0.478  -2.623  1.00  0.00     0.175 A 
HETATM   36  O2  UNL     1      -4.959  -0.072  -3.769  1.00  0.00    -0.294 OA
HETATM   37  C20 UNL     1      -5.746   0.957  -3.422  1.00  0.00     0.296 A 
HETATM   38  C21 UNL     1      -5.551   1.303  -2.021  1.00  0.00     0.062 A 
HETATM   39  O3  UNL     1      -6.518   1.537  -4.148  1.00  0.00    -0.259 OA
ENDBRANCH  15  34
TORSDOF 4
