REMARK  1 active torsions:
REMARK  status: ('A' for Active; 'I' for Inactive)
REMARK    1  A    between atoms: C10_10  and  C13_13 
ROOT
HETATM    1  C1  UNL     1       0.754   2.059  -0.996  1.00  0.00     0.004 C 
HETATM    2  C2  UNL     1      -0.471   2.418  -0.139  1.00  0.00     0.001 C 
HETATM    3  C3  UNL     1      -1.069   1.092   0.404  1.00  0.00     0.008 C 
HETATM    4  C4  UNL     1      -2.399   0.781  -0.340  1.00  0.00     0.008 C 
HETATM    5  C5  UNL     1      -2.139  -0.479  -1.156  1.00  0.00     0.065 C 
HETATM    6  C6  UNL     1      -0.653  -0.498  -1.283  1.00  0.00     0.150 C 
HETATM    7  C7  UNL     1      -0.016   0.049  -0.015  1.00  0.00     0.059 C 
HETATM    8  C8  UNL     1       1.260   0.894  -0.162  1.00  0.00     0.025 C 
HETATM    9  C9  UNL     1       2.252  -0.131  -0.613  1.00  0.00    -0.025 C 
HETATM   10  C10 UNL     1       1.935  -1.283  -0.002  1.00  0.00     0.038 C 
HETATM   11  C11 UNL     1       0.629  -1.137   0.760  1.00  0.00     0.035 C 
HETATM   12  C12 UNL     1      -0.192  -2.420   0.809  1.00  0.00     0.005 C 
HETATM   13  C14 UNL     1       1.828   1.494   1.143  1.00  0.00     0.005 C 
HETATM   14  O3  UNL     1      -0.059  -0.873  -2.267  1.00  0.00    -0.296 OA
HETATM   15  C15 UNL     1      -3.582   0.605   0.606  1.00  0.00     0.001 C 
ENDROOT
BRANCH  10  16
HETATM   16  C13 UNL     1       2.732  -2.520  -0.062  1.00  0.00     0.206 C 
HETATM   17  O1  UNL     1       3.801  -2.481  -0.855  1.00  0.00    -0.644 OA
HETATM   18  O2  UNL     1       2.408  -3.490   0.578  1.00  0.00    -0.644 OA
ENDBRANCH  10  16
TORSDOF 1
