REMARK  3 active torsions:
REMARK  status: ('A' for Active; 'I' for Inactive)
REMARK    1  A    between atoms: C1_2  and  C2_3 
REMARK    2  A    between atoms: C2_3  and  C3_4 
REMARK    3  A    between atoms: C3_4  and  C4_5 
ROOT
HETATM    1  C2  UNL     1      -0.439   0.129   1.127  1.00  0.00     0.109 C 
ENDROOT
BRANCH   1   2
HETATM    2  C1  UNL     1       1.067   0.129   1.127  1.00  0.00     0.186 C 
HETATM    3  O1  UNL     1       1.631   1.115   0.435  1.00  0.00    -0.647 OA
HETATM    4  O4  UNL     1       1.688  -0.719   1.721  1.00  0.00    -0.647 OA
ENDBRANCH   1   2
BRANCH   1   5
HETATM    5  C3  UNL     1      -1.023  -0.656  -0.049  1.00  0.00     0.109 C 
BRANCH   5   6
HETATM    6  C4  UNL     1      -0.728  -0.008  -1.375  1.00  0.00     0.186 C 
HETATM    7  O2  UNL     1       0.416  -0.377  -1.944  1.00  0.00    -0.647 OA
HETATM    8  O3  UNL     1      -1.496   0.787  -1.863  1.00  0.00    -0.647 OA
ENDBRANCH   5   6
ENDBRANCH   1   5
TORSDOF 3
