REMARK  10 active torsions:
REMARK  status: ('A' for Active; 'I' for Inactive)
REMARK    1  A    between atoms: C5_5  and  C7_7 
REMARK    2  A    between atoms: C7_7  and  O2_9 
REMARK    3  A    between atoms: O2_9  and  C8_10 
REMARK    4  A    between atoms: C11_13  and  O4_16 
REMARK    5  A    between atoms: O4_16  and  C13_17 
REMARK    6  A    between atoms: C13_17  and  C14_18 
REMARK    7  A    between atoms: C18_22  and  O6_24 
REMARK    8  A    between atoms: O6_24  and  C19_25 
REMARK    9  A    between atoms: C20_26  and  C26_33 
REMARK   10  A    between atoms: C23_29  and  O7_31 
ROOT
HETATM    1  C13 UNL     1       2.484   1.568   0.293  1.00  0.00     0.177 C 
ENDROOT
BRANCH   1   2
HETATM    2  O4  UNL     1       1.502   0.623  -0.070  1.00  0.00    -0.326 OA
BRANCH   2   3
HETATM    3  C11 UNL     1       1.186   0.648  -1.451  1.00  0.00     0.270 C 
HETATM    4  C10 UNL     1       0.447  -0.639  -1.912  1.00  0.00     0.241 C 
HETATM    5  C9  UNL     1      -1.012  -0.727  -1.402  1.00  0.00     0.217 C 
HETATM    6  O12 UNL     1       1.186  -1.805  -1.586  1.00  0.00    -0.215 OA
HETATM    7  C8  UNL     1      -1.734   0.601  -1.688  1.00  0.00     0.187 C 
HETATM    8  O13 UNL     1      -1.061  -0.979  -0.010  1.00  0.00    -0.218 OA
HETATM    9  C12 UNL     1      -0.912   1.824  -1.227  1.00  0.00     0.178 C 
HETATM   10  O3  UNL     1       0.400   1.791  -1.785  1.00  0.00    -0.326 OA
BRANCH   7  11
HETATM   11  O2  UNL     1      -1.967   0.705  -3.086  1.00  0.00    -0.296 OA
BRANCH  11  12
HETATM   12  C7  UNL     1      -3.111   0.135  -3.453  1.00  0.00     0.296 C 
HETATM   13  O1  UNL     1      -3.313  -1.057  -3.410  1.00  0.00    -0.259 OA
BRANCH  12  14
HETATM   14  C5  UNL     1      -4.166   1.074  -3.936  1.00  0.00     0.067 A 
HETATM   15  C4  UNL     1      -3.971   2.463  -3.834  1.00  0.00     0.035 A 
HETATM   16  C3  UNL     1      -4.963   3.350  -4.289  1.00  0.00     0.158 A 
HETATM   17  C2  UNL     1      -6.154   2.848  -4.846  1.00  0.00     0.181 A 
HETATM   18  O14 UNL     1      -4.775   4.652  -4.192  1.00  0.00    -0.188 OA
HETATM   19  C1  UNL     1      -6.350   1.457  -4.947  1.00  0.00     0.158 A 
HETATM   20  O15 UNL     1      -7.084   3.678  -5.272  1.00  0.00    -0.186 OA
HETATM   21  C6  UNL     1      -5.356   0.574  -4.492  1.00  0.00     0.035 A 
HETATM   22  O16 UNL     1      -7.463   0.980  -5.469  1.00  0.00    -0.188 OA
ENDBRANCH  12  14
ENDBRANCH  11  12
ENDBRANCH   7  11
ENDBRANCH   2   3
ENDBRANCH   1   2
BRANCH   1  23
HETATM   23  C14 UNL     1       2.803   1.383   1.779  1.00  0.00     0.180 C 
HETATM   24  C15 UNL     1       3.748   2.488   2.326  1.00  0.00     0.215 C 
HETATM   25  C16 UNL     1       4.598   2.033   3.545  1.00  0.00     0.220 C 
HETATM   26  O11 UNL     1       2.949   3.592   2.711  1.00  0.00    -0.218 OA
HETATM   27  C17 UNL     1       3.908   0.838   4.240  1.00  0.00     0.241 C 
HETATM   28  O10 UNL     1       5.883   1.646   3.082  1.00  0.00    -0.218 OA
HETATM   29  C18 UNL     1       3.586  -0.332   3.270  1.00  0.00     0.274 C 
HETATM   30  O9  UNL     1       4.674   0.367   5.334  1.00  0.00    -0.215 OA
HETATM   31  O5  UNL     1       3.436   0.119   1.924  1.00  0.00    -0.326 OA
BRANCH  29  32
HETATM   32  O6  UNL     1       2.391  -0.979   3.687  1.00  0.00    -0.303 OA
BRANCH  32  33
HETATM   33  C19 UNL     1       1.889  -1.916   2.910  1.00  0.00     0.102 A 
HETATM   34  C20 UNL     1       0.502  -2.174   2.894  1.00  0.00     0.057 A 
HETATM   35  C21 UNL     1      -0.016  -3.178   2.059  1.00  0.00     0.007 A 
HETATM   36  C22 UNL     1       0.844  -3.928   1.240  1.00  0.00     0.024 A 
HETATM   37  C23 UNL     1       2.227  -3.676   1.252  1.00  0.00     0.096 A 
HETATM   38  C24 UNL     1       2.744  -2.670   2.088  1.00  0.00     0.049 A 
BRANCH  34  39
HETATM   39  C26 UNL     1      -0.422  -1.383   3.762  1.00  0.00     0.175 C 
HETATM   40  C27 UNL     1      -1.883  -1.750   3.760  1.00  0.00     0.077 C 
HETATM   41  O8  UNL     1      -0.010  -0.475   4.445  1.00  0.00    -0.291 OA
ENDBRANCH  34  39
BRANCH  37  42
HETATM   42  O7  UNL     1       3.035  -4.379   0.482  1.00  0.00    -0.328 OA
HETATM   43  C25 UNL     1       2.471  -5.424  -0.295  1.00  0.00     0.181 C 
ENDBRANCH  37  42
ENDBRANCH  32  33
ENDBRANCH  29  32
ENDBRANCH   1  23
TORSDOF 10
