REMARK  10 active torsions:
REMARK  status: ('A' for Active; 'I' for Inactive)
REMARK    1  A    between atoms: C3_3  and  C7_9 
REMARK    2  A    between atoms: C7_9  and  O3_10 
REMARK    3  A    between atoms: O3_10  and  C8_11 
REMARK    4  A    between atoms: C11_14  and  O10_28 
REMARK    5  A    between atoms: C12_16  and  C13_17 
REMARK    6  A    between atoms: C13_17  and  O5_18 
REMARK    7  A    between atoms: O5_18  and  C14_19 
REMARK    8  A    between atoms: O10_28  and  C19_29 
REMARK    9  A    between atoms: C20_30  and  C26_37 
REMARK   10  A    between atoms: C23_33  and  O11_35 
ROOT
HETATM    1  C8  UNL     1      -1.754  -1.698   0.372  1.00  0.00     0.187 C 
HETATM    2  C9  UNL     1      -2.705  -1.593   1.577  1.00  0.00     0.217 C 
HETATM    3  C10 UNL     1      -3.374  -0.203   1.595  1.00  0.00     0.241 C 
HETATM    4  C11 UNL     1      -2.321   0.921   1.482  1.00  0.00     0.274 C 
HETATM    5  O4  UNL     1      -1.515   0.712   0.329  1.00  0.00    -0.326 OA
HETATM    6  C12 UNL     1      -0.779  -0.504   0.326  1.00  0.00     0.178 C 
HETATM    7  O13 UNL     1      -4.095  -0.029   2.802  1.00  0.00    -0.215 OA
HETATM    8  O14 UNL     1      -3.684  -2.613   1.487  1.00  0.00    -0.218 OA
ENDROOT
BRANCH   1   9
HETATM    9  O3  UNL     1      -1.009  -2.906   0.456  1.00  0.00    -0.296 OA
BRANCH   9  10
HETATM   10  C7  UNL     1      -1.596  -3.909  -0.191  1.00  0.00     0.296 C 
HETATM   11  O15 UNL     1      -2.676  -3.823  -0.728  1.00  0.00    -0.259 OA
BRANCH  10  12
HETATM   12  C3  UNL     1      -0.824  -5.187  -0.219  1.00  0.00     0.067 A 
HETATM   13  C2  UNL     1      -1.350  -6.314  -0.875  1.00  0.00     0.035 A 
HETATM   14  C1  UNL     1      -0.625  -7.518  -0.902  1.00  0.00     0.158 A 
HETATM   15  C6  UNL     1       0.631  -7.596  -0.270  1.00  0.00     0.181 A 
HETATM   16  O16 UNL     1      -1.123  -8.571  -1.519  1.00  0.00    -0.188 OA
HETATM   17  C5  UNL     1       1.158  -6.469   0.388  1.00  0.00     0.158 A 
HETATM   18  O1  UNL     1       1.312  -8.725  -0.294  1.00  0.00    -0.186 OA
HETATM   19  C4  UNL     1       0.430  -5.267   0.412  1.00  0.00     0.035 A 
HETATM   20  O2  UNL     1       2.333  -6.537   0.981  1.00  0.00    -0.188 OA
ENDBRANCH  10  12
ENDBRANCH   9  10
ENDBRANCH   1   9
BRANCH   6  21
HETATM   21  C13 UNL     1       0.089  -0.506  -0.935  1.00  0.00     0.177 C 
BRANCH  21  22
HETATM   22  O5  UNL     1       1.042   0.525  -0.816  1.00  0.00    -0.326 OA
BRANCH  22  23
HETATM   23  C14 UNL     1       1.862   0.662  -1.961  1.00  0.00     0.270 C 
HETATM   24  O6  UNL     1       2.675  -0.499  -2.074  1.00  0.00    -0.326 OA
HETATM   25  C15 UNL     1       3.539  -0.520  -3.206  1.00  0.00     0.181 C 
HETATM   26  C16 UNL     1       4.523   0.670  -3.165  1.00  0.00     0.215 C 
HETATM   27  C17 UNL     1       3.755   2.003  -3.017  1.00  0.00     0.220 C 
HETATM   28  O9  UNL     1       5.431   0.475  -2.090  1.00  0.00    -0.218 OA
HETATM   29  C18 UNL     1       2.749   1.930  -1.844  1.00  0.00     0.241 C 
HETATM   30  O8  UNL     1       4.653   3.090  -2.858  1.00  0.00    -0.218 OA
HETATM   31  O7  UNL     1       1.923   3.084  -1.860  1.00  0.00    -0.215 OA
ENDBRANCH  22  23
ENDBRANCH  21  22
ENDBRANCH   6  21
BRANCH   4  32
HETATM   32  O10 UNL     1      -2.965   2.182   1.369  1.00  0.00    -0.303 OA
BRANCH  32  33
HETATM   33  C19 UNL     1      -2.208   3.261   1.311  1.00  0.00     0.102 A 
HETATM   34  C20 UNL     1      -1.867   3.963   2.484  1.00  0.00     0.057 A 
HETATM   35  C21 UNL     1      -1.059   5.111   2.405  1.00  0.00     0.007 A 
HETATM   36  C22 UNL     1      -0.591   5.559   1.158  1.00  0.00     0.024 A 
HETATM   37  C23 UNL     1      -0.930   4.862  -0.015  1.00  0.00     0.096 A 
HETATM   38  C24 UNL     1      -1.737   3.714   0.066  1.00  0.00     0.049 A 
BRANCH  34  39
HETATM   39  C26 UNL     1      -2.358   3.496   3.816  1.00  0.00     0.175 C 
HETATM   40  C27 UNL     1      -1.846   4.197   5.046  1.00  0.00     0.077 C 
HETATM   41  O12 UNL     1      -3.143   2.581   3.903  1.00  0.00    -0.291 OA
ENDBRANCH  34  39
BRANCH  37  42
HETATM   42  O11 UNL     1      -0.492   5.282  -1.185  1.00  0.00    -0.328 OA
HETATM   43  C25 UNL     1       0.205   6.519  -1.231  1.00  0.00     0.181 C 
ENDBRANCH  37  42
ENDBRANCH  32  33
ENDBRANCH   4  32
TORSDOF 10
