REMARK  3 active torsions:
REMARK  status: ('A' for Active; 'I' for Inactive)
REMARK    1  A    between atoms: C7_7  and  C12_17 
REMARK    2  A    between atoms: C10_10  and  C11_11 
REMARK    3  A    between atoms: C11_11  and  S1_12 
ROOT
HETATM    1  C1  UNL     1       0.916  -0.828  -0.391  1.00  0.00     0.036 C 
HETATM    2  C2  UNL     1       2.162  -1.695  -0.600  1.00  0.00     0.005 C 
HETATM    3  C3  UNL     1       3.262  -0.656  -0.477  1.00  0.00     0.031 C 
HETATM    4  C4  UNL     1       2.828   0.127   0.766  1.00  0.00     0.131 C 
HETATM    5  C5  UNL     1       1.269   0.074   0.807  1.00  0.00     0.052 C 
HETATM    6  C6  UNL     1       0.547   1.418   0.832  1.00  0.00    -0.032 C 
HETATM    7  C7  UNL     1      -0.682   1.678   0.328  1.00  0.00    -0.049 C 
HETATM    8  C8  UNL     1      -1.588   0.660  -0.336  1.00  0.00     0.024 C 
HETATM    9  C9  UNL     1      -1.551  -0.740   0.295  1.00  0.00     0.036 C 
HETATM   10  C10 UNL     1      -0.401  -1.623  -0.232  1.00  0.00     0.145 C 
HETATM   11  O4  UNL     1      -0.237  -2.697   0.676  1.00  0.00    -0.225 OA
HETATM   12  O5  UNL     1       3.359   1.438   0.676  1.00  0.00    -0.226 OA
HETATM   13  C15 UNL     1       3.426  -0.510   2.020  1.00  0.00     0.033 C 
ENDROOT
BRANCH  10  14
HETATM   14  C11 UNL     1      -0.735  -2.246  -1.594  1.00  0.00     0.176 C 
BRANCH  14  15
HETATM   15  S1  UNL     1      -2.334  -3.045  -1.541  1.00  0.00     0.118 S 
HETATM   16  O1  UNL     1      -2.399  -4.215  -2.584  1.00  0.00    -0.594 OA
HETATM   17  O2  UNL     1      -3.354  -2.076  -1.900  1.00  0.00    -0.594 OA
HETATM   18  O3  UNL     1      -2.528  -3.617  -0.219  1.00  0.00    -0.594 OA
ENDBRANCH  14  15
ENDBRANCH  10  14
BRANCH   7  19
HETATM   19  C12 UNL     1      -1.221   3.084   0.432  1.00  0.00     0.018 C 
HETATM   20  C13 UNL     1      -2.266   3.227   1.537  1.00  0.00     0.004 C 
HETATM   21  C14 UNL     1      -1.707   3.621  -0.914  1.00  0.00     0.004 C 
ENDBRANCH   7  19
TORSDOF 3
