REMARK  2 active torsions:
REMARK  status: ('A' for Active; 'I' for Inactive)
REMARK    1  A    between atoms: C2_2  and  S1_18 
REMARK    2  A    between atoms: C9_9  and  C11_12 
ROOT
HETATM    1  C1  UNL     1       2.078   1.434   1.055  1.00  0.00     0.018 C 
HETATM    2  C2  UNL     1       2.322   0.160   0.246  1.00  0.00     0.115 C 
HETATM    3  C3  UNL     1       0.955  -0.059  -0.430  1.00  0.00     0.052 C 
HETATM    4  C4  UNL     1       0.504   1.377  -0.793  1.00  0.00     0.029 C 
HETATM    5  C5  UNL     1       1.344   2.334   0.067  1.00  0.00     0.004 C 
HETATM    6  C6  UNL     1      -1.027   1.592  -0.748  1.00  0.00     0.093 C 
HETATM    7  C7  UNL     1      -1.625   1.758   0.664  1.00  0.00     0.030 C 
HETATM    8  C8  UNL     1      -2.326   0.424   0.932  1.00  0.00     0.032 C 
HETATM    9  C9  UNL     1      -1.625  -0.500  -0.076  1.00  0.00     0.121 C 
HETATM   10  C10 UNL     1      -0.154  -0.900   0.272  1.00  0.00     0.178 C 
HETATM   11  O1  UNL     1       0.020  -0.930   1.676  1.00  0.00    -0.221 OA
HETATM   12  O2  UNL     1      -1.607   0.381  -1.174  1.00  0.00    -0.361 OA
HETATM   13  C14 UNL     1      -1.459   2.707  -1.697  1.00  0.00     0.030 C 
HETATM   14  C15 UNL     1       3.406   0.422  -0.801  1.00  0.00     0.019 C 
ENDROOT
BRANCH   2  15
HETATM   15  S1  UNL     1       2.863  -1.209   1.268  1.00  0.00     0.114 S 
HETATM   16  O3  UNL     1       2.332  -2.443   0.717  1.00  0.00    -0.594 OA
HETATM   17  O4  UNL     1       2.445  -0.967   2.637  1.00  0.00    -0.594 OA
HETATM   18  O5  UNL     1       4.430  -1.318   1.258  1.00  0.00    -0.594 OA
ENDBRANCH   2  15
BRANCH   9  19
HETATM   19  C11 UNL     1      -2.510  -1.695  -0.420  1.00  0.00     0.028 C 
HETATM   20  C12 UNL     1      -2.541  -2.662   0.764  1.00  0.00     0.003 C 
HETATM   21  C13 UNL     1      -2.004  -2.350  -1.705  1.00  0.00     0.003 C 
ENDBRANCH   9  19
TORSDOF 2
