REMARK  3 active torsions:
REMARK  status: ('A' for Active; 'I' for Inactive)
REMARK    1  A    between atoms: C7_8  and  C9_10 
REMARK    2  A    between atoms: C19_23  and  O6_28 
REMARK    3  A    between atoms: C20_24  and  O5_26 
ROOT
HETATM    1  C1  UNL     1      -2.559  -2.111  -0.912  1.00  0.00     0.051 C 
HETATM    2  C2  UNL     1      -1.270  -2.680  -0.885  1.00  0.00     0.138 C 
HETATM    3  C3  UNL     1      -0.275  -2.100  -0.064  1.00  0.00     0.083 C 
HETATM    4  C4  UNL     1      -0.611  -1.035   0.830  1.00  0.00     0.097 C 
HETATM    5  C5  UNL     1      -1.912  -0.465   0.736  1.00  0.00     0.025 C 
HETATM    6  C6  UNL     1      -2.885  -0.973  -0.135  1.00  0.00     0.094 C 
HETATM    7  O1  UNL     1      -4.022  -0.279  -0.088  1.00  0.00    -0.329 OA
HETATM    8  C7  UNL     1      -3.881   0.873   0.762  1.00  0.00     0.144 C 
HETATM    9  C8  UNL     1      -2.502   0.709   1.475  1.00  0.00     0.065 C 
HETATM   10  O2  UNL     1       0.328  -0.615   1.707  1.00  0.00    -0.330 OA
HETATM   11  C12 UNL     1       1.551  -1.334   1.926  1.00  0.00     0.163 C 
HETATM   12  C13 UNL     1       2.166  -1.740   0.576  1.00  0.00     0.116 C 
HETATM   13  C14 UNL     1       1.137  -2.586  -0.144  1.00  0.00     0.183 C 
HETATM   14  O3  UNL     1       1.535  -3.570  -0.727  1.00  0.00    -0.291 OA
HETATM   15  C15 UNL     1       2.600  -0.523  -0.184  1.00  0.00     0.012 A 
HETATM   16  C16 UNL     1       2.869   0.688   0.527  1.00  0.00     0.093 A 
HETATM   17  O4  UNL     1       2.773   0.762   1.873  1.00  0.00    -0.328 OA
HETATM   18  C17 UNL     1       2.523  -0.408   2.664  1.00  0.00     0.179 C 
HETATM   19  C18 UNL     1       3.225   1.858  -0.184  1.00  0.00     0.050 A 
HETATM   20  C19 UNL     1       3.314   1.836  -1.594  1.00  0.00     0.118 A 
HETATM   21  C20 UNL     1       3.080   0.635  -2.299  1.00  0.00     0.116 A 
HETATM   22  C21 UNL     1       2.738  -0.545  -1.598  1.00  0.00     0.024 A 
HETATM   23  O7  UNL     1      -1.004  -3.746  -1.654  1.00  0.00    -0.190 OA
ENDROOT
BRANCH   8  24
HETATM   24  C9  UNL     1      -5.065   0.988   1.688  1.00  0.00    -0.017 C 
HETATM   25  C10 UNL     1      -5.850   2.072   1.594  1.00  0.00    -0.007 C 
HETATM   26  C11 UNL     1      -5.406  -0.059   2.715  1.00  0.00     0.029 C 
ENDBRANCH   8  24
BRANCH  21  27
HETATM   27  O5  UNL     1       3.176   0.611  -3.637  1.00  0.00    -0.326 OA
HETATM   28  C22 UNL     1       2.910  -0.615  -4.301  1.00  0.00     0.181 C 
ENDBRANCH  21  27
BRANCH  20  29
HETATM   29  O6  UNL     1       3.623   2.957  -2.260  1.00  0.00    -0.326 OA
HETATM   30  C23 UNL     1       3.801   4.151  -1.510  1.00  0.00     0.181 C 
ENDBRANCH  20  29
TORSDOF 3
