REMARK  6 active torsions:
REMARK  status: ('A' for Active; 'I' for Inactive)
REMARK    1  A    between atoms: C5_6  and  C8_9 
REMARK    2  A    between atoms: C8_9  and  O1_10 
REMARK    3  A    between atoms: O1_10  and  C9_11 
REMARK    4  A    between atoms: C9_11  and  C10_12 
REMARK    5  A    between atoms: C10_12  and  C11_13 
REMARK    6  A    between atoms: C10_12  and  C13_16 
ROOT
HETATM    1  O1  UNL     1      -0.303   0.026   0.079  1.00  0.00    -0.295 OA
ENDROOT
BRANCH   1   2
HETATM    2  C8  UNL     1       1.058   0.248  -0.261  1.00  0.00     0.176 C 
BRANCH   2   3
HETATM    3  C5  UNL     1       1.778  -1.072  -0.339  1.00  0.00     0.014 A 
HETATM    4  C3  UNL     1       3.124  -1.317   0.283  1.00  0.00     0.240 A 
HETATM    5  N1  UNL     1       3.458  -2.706  -0.088  1.00  0.00     0.143 N 
HETATM    6  C4  UNL     1       4.235  -0.414  -0.261  1.00  0.00     0.040 C 
HETATM    7  C2  UNL     1       4.700  -2.623  -0.860  1.00  0.00     0.251 C 
HETATM    8  C7  UNL     1       2.308  -3.277  -0.825  1.00  0.00     0.276 A 
HETATM    9  C1  UNL     1       4.761  -1.218  -1.444  1.00  0.00     0.038 C 
HETATM   10  C6  UNL     1       1.317  -2.159  -0.958  1.00  0.00     0.005 A 
ENDBRANCH   2   3
ENDBRANCH   1   2
BRANCH   1  11
HETATM   11  C9  UNL     1      -0.995   1.158   0.163  1.00  0.00     0.302 C 
HETATM   12  O4  UNL     1      -0.521   2.253  -0.027  1.00  0.00    -0.261 OA
BRANCH  11  13
HETATM   13  C10 UNL     1      -2.448   0.995   0.521  1.00  0.00     0.231 C 
HETATM   14  O3  UNL     1      -2.880  -0.297   0.155  1.00  0.00    -0.213 OA
BRANCH  13  15
HETATM   15  C11 UNL     1      -2.705   1.179   2.017  1.00  0.00     0.189 C 
HETATM   16  C12 UNL     1      -1.870   0.233   2.880  1.00  0.00     0.039 C 
HETATM   17  O2  UNL     1      -2.369   2.504   2.362  1.00  0.00    -0.220 OA
ENDBRANCH  13  15
BRANCH  13  18
HETATM   18  C13 UNL     1      -3.202   2.012  -0.337  1.00  0.00     0.040 C 
HETATM   19  C14 UNL     1      -3.017   1.771  -1.836  1.00  0.00     0.003 C 
HETATM   20  C15 UNL     1      -4.671   2.147   0.062  1.00  0.00     0.003 C 
ENDBRANCH  13  18
ENDBRANCH  11  13
ENDBRANCH   1  11
TORSDOF 6
