REMARK  12 active torsions:
REMARK  status: ('A' for Active; 'I' for Inactive)
REMARK    1  A    between atoms: C3_3  and  C4_4 
REMARK    2  A    between atoms: C4_4  and  C5_5 
REMARK    3  A    between atoms: C5_5  and  C6_6 
REMARK    4  A    between atoms: C7_7  and  C8_8 
REMARK    5  A    between atoms: C8_8  and  C9_9 
REMARK    6  A    between atoms: C12_12  and  C23_27 
REMARK    7  A    between atoms: C16_17  and  C18_20 
REMARK    8  A    between atoms: C18_20  and  C19_22 
REMARK    9  A    between atoms: C19_22  and  C20_23 
REMARK   10  A    between atoms: C23_27  and  O5_28 
REMARK   11  A    between atoms: C23_27  and  C26_32 
REMARK   12  A    between atoms: O5_28  and  C24_29 
ROOT
HETATM    1  C9  UNL     1      -0.623  -0.633   1.660  1.00  0.00     0.033 A 
HETATM    2  C10 UNL     1       0.762  -0.359   1.533  1.00  0.00     0.131 A 
HETATM    3  C11 UNL     1       1.660  -1.412   1.201  1.00  0.00     0.047 A 
HETATM    4  C12 UNL     1       3.133  -1.176   1.053  1.00  0.00     0.014 A 
HETATM    5  C13 UNL     1       3.924  -2.223   0.740  1.00  0.00     0.067 A 
HETATM    6  C14 UNL     1       3.344  -3.568   0.547  1.00  0.00     0.300 A 
HETATM    7  O1  UNL     1       2.018  -3.740   0.687  1.00  0.00    -0.273 OA
HETATM    8  C15 UNL     1       1.168  -2.733   1.000  1.00  0.00     0.110 A 
HETATM    9  C16 UNL     1      -0.219  -2.992   1.129  1.00  0.00     0.083 A 
HETATM   10  C17 UNL     1      -1.115  -1.945   1.457  1.00  0.00     0.134 A 
HETATM   11  O2  UNL     1      -2.428  -2.193   1.578  1.00  0.00    -0.190 OA
HETATM   12  O4  UNL     1       4.088  -4.481   0.266  1.00  0.00    -0.259 OA
HETATM   13  O7  UNL     1       1.199   0.893   1.730  1.00  0.00    -0.190 OA
ENDROOT
BRANCH   1  14
HETATM   14  C8  UNL     1      -1.559   0.453   2.002  1.00  0.00     0.056 C 
BRANCH  14  15
HETATM   15  C7  UNL     1      -1.793   1.385   0.842  1.00  0.00    -0.030 C 
HETATM   16  C6  UNL     1      -2.754   2.318   0.955  1.00  0.00    -0.048 C 
HETATM   17  C28 UNL     1      -3.545   2.383   2.232  1.00  0.00     0.026 C 
BRANCH  16  18
HETATM   18  C5  UNL     1      -3.115   3.324  -0.106  1.00  0.00     0.026 C 
BRANCH  18  19
HETATM   19  C4  UNL     1      -2.486   2.994  -1.461  1.00  0.00     0.030 C 
BRANCH  19  20
HETATM   20  C3  UNL     1      -2.973   3.906  -2.555  1.00  0.00    -0.034 C 
HETATM   21  C2  UNL     1      -2.229   4.027  -3.666  1.00  0.00    -0.048 C 
HETATM   22  C1  UNL     1      -2.463   5.027  -4.766  1.00  0.00     0.026 C 
HETATM   23  C29 UNL     1      -1.059   3.098  -3.852  1.00  0.00     0.026 C 
ENDBRANCH  19  20
ENDBRANCH  18  19
ENDBRANCH  16  18
ENDBRANCH  14  15
ENDBRANCH   1  14
BRANCH   9  24
HETATM   24  C18 UNL     1      -0.734  -4.365   0.922  1.00  0.00     0.176 C 
HETATM   25  O3  UNL     1      -0.533  -5.358   1.578  1.00  0.00    -0.291 OA
BRANCH  24  26
HETATM   26  C19 UNL     1      -1.617  -4.408  -0.297  1.00  0.00     0.062 C 
HETATM   27  C22 UNL     1      -1.129  -3.473  -1.404  1.00  0.00     0.008 C 
BRANCH  26  28
HETATM   28  C20 UNL     1      -1.855  -5.836  -0.793  1.00  0.00     0.008 C 
HETATM   29  C21 UNL     1      -0.604  -6.463  -1.408  1.00  0.00     0.001 C 
ENDBRANCH  26  28
ENDBRANCH  24  26
ENDBRANCH   9  24
BRANCH   4  30
HETATM   30  C23 UNL     1       3.764   0.182   1.240  1.00  0.00     0.147 C 
BRANCH  30  31
HETATM   31  O5  UNL     1       3.102   1.129   0.418  1.00  0.00    -0.300 OA
BRANCH  31  32
HETATM   32  C24 UNL     1       3.820   2.232   0.234  1.00  0.00     0.273 C 
HETATM   33  C25 UNL     1       3.096   3.367  -0.436  1.00  0.00     0.106 C 
HETATM   34  O6  UNL     1       4.977   2.346   0.572  1.00  0.00    -0.264 OA
ENDBRANCH  31  32
ENDBRANCH  30  31
BRANCH  30  35
HETATM   35  C26 UNL     1       3.719   0.650   2.695  1.00  0.00     0.035 C 
HETATM   36  C27 UNL     1       5.035   0.406   3.434  1.00  0.00     0.003 C 
ENDBRANCH  30  35
ENDBRANCH   4  30
TORSDOF 12
