REMARK  3 active torsions:
REMARK  status: ('A' for Active; 'I' for Inactive)
REMARK    1  A    between atoms: C10_14  and  C11_15 
REMARK    2  A    between atoms: C11_15  and  O1_16 
REMARK    3  A    between atoms: O1_16  and  C12_17 
ROOT
HETATM    1  N1  UNL     1      -4.886  -3.321  -0.795  1.00  0.00    -0.170 NA
HETATM    2  C1  UNL     1      -5.205  -4.607  -0.521  1.00  0.00     0.373 C 
HETATM    3  N2  UNL     1      -4.162  -5.478  -0.405  1.00  0.00    -0.150 NA
HETATM    4  C2  UNL     1      -2.846  -5.129  -0.553  1.00  0.00     0.302 C 
HETATM    5  C3  UNL     1      -2.538  -3.668  -0.691  1.00  0.00     0.159 C 
HETATM    6  C4  UNL     1      -3.627  -2.854  -0.856  1.00  0.00     0.184 C 
HETATM    7  N3  UNL     1      -3.496  -1.515  -1.131  1.00  0.00    -0.247 NA
HETATM    8  C5  UNL     1      -2.261  -1.092  -1.783  1.00  0.00     0.180 C 
HETATM    9  C6  UNL     1      -1.037  -1.741  -1.112  1.00  0.00     0.231 C 
HETATM   10  N4  UNL     1      -1.296  -3.108  -0.599  1.00  0.00    -0.267 N 
HETATM   11  C7  UNL     1      -0.312  -3.718   0.165  1.00  0.00     0.268 C 
HETATM   12  C8  UNL     1       0.859  -2.836   0.623  1.00  0.00     0.208 C 
HETATM   13  C9  UNL     1       0.271  -1.506   1.104  1.00  0.00     0.123 A 
HETATM   14  C10 UNL     1      -0.483  -0.782  -0.035  1.00  0.00     0.150 C 
HETATM   15  C18 UNL     1      -0.737  -1.687   2.259  1.00  0.00     0.196 A 
HETATM   16  N5  UNL     1      -0.342  -1.005   3.365  1.00  0.00    -0.224 NA
HETATM   17  C19 UNL     1       0.890  -0.360   3.124  1.00  0.00     0.076 A 
HETATM   18  C20 UNL     1       1.269  -0.628   1.849  1.00  0.00    -0.016 A 
HETATM   19  C21 UNL     1       2.618  -0.178   1.405  1.00  0.00     0.029 C 
HETATM   20  C22 UNL     1       3.340   0.800   2.299  1.00  0.00     0.038 C 
HETATM   21  C23 UNL     1       2.833   0.987   3.690  1.00  0.00     0.014 C 
HETATM   22  C24 UNL     1       1.653   0.435   4.072  1.00  0.00     0.021 C 
HETATM   23 BR1  UNL     1       3.826   2.058   4.885  1.00  0.00    -0.054 Br
HETATM   24  O8  UNL     1      -1.883  -2.318   2.163  1.00  0.00    -0.174 OA
HETATM   25  C25 UNL     1       1.655  -3.551   1.724  1.00  0.00     0.043 C 
HETATM   26  O9  UNL     1       1.754  -2.597  -0.441  1.00  0.00    -0.216 OA
HETATM   27  O10 UNL     1      -0.407  -4.831   0.626  1.00  0.00    -0.269 OA
HETATM   28  O11 UNL     1      -0.105  -1.818  -2.182  1.00  0.00    -0.200 OA
HETATM   29  O12 UNL     1      -2.045  -6.043  -0.711  1.00  0.00    -0.263 OA
HETATM   30  O13 UNL     1      -6.348  -4.976  -0.432  1.00  0.00    -0.242 OA
ENDROOT
BRANCH  14  31
HETATM   31  C11 UNL     1       0.441   0.233  -0.698  1.00  0.00     0.277 C 
HETATM   32  O7  UNL     1       1.495  -0.115  -1.182  1.00  0.00    -0.264 OA
BRANCH  31  33
HETATM   33  O1  UNL     1      -0.045   1.498  -0.623  1.00  0.00    -0.299 OA
BRANCH  33  34
HETATM   34  C12 UNL     1       0.809   2.560  -0.935  1.00  0.00     0.190 C 
HETATM   35  C13 UNL     1       0.902   3.497   0.265  1.00  0.00     0.215 C 
HETATM   36  C14 UNL     1       1.754   4.721  -0.021  1.00  0.00     0.218 C 
HETATM   37  O6  UNL     1       1.476   2.800   1.345  1.00  0.00    -0.218 OA
HETATM   38  C15 UNL     1       1.326   5.424  -1.297  1.00  0.00     0.218 C 
HETATM   39  O5  UNL     1       3.087   4.299  -0.165  1.00  0.00    -0.218 OA
HETATM   40  C16 UNL     1       1.191   4.470  -2.468  1.00  0.00     0.218 C 
HETATM   41  O4  UNL     1       2.297   6.386  -1.625  1.00  0.00    -0.218 OA
HETATM   42  C17 UNL     1       0.258   3.324  -2.129  1.00  0.00     0.215 C 
HETATM   43  O3  UNL     1       0.677   5.170  -3.572  1.00  0.00    -0.218 OA
HETATM   44  O2  UNL     1       0.176   2.475  -3.247  1.00  0.00    -0.218 OA
ENDBRANCH  33  34
ENDBRANCH  31  33
ENDBRANCH  14  31
TORSDOF 3
