REMARK  1 active torsions:
REMARK  status: ('A' for Active; 'I' for Inactive)
REMARK    1  A    between atoms: C12_14  and  O3_16 
ROOT
HETATM    1  C1  UNL     1       4.279  -0.269   0.865  1.00  0.00     0.156 A 
HETATM    2  C2  UNL     1       3.076  -1.006   0.988  1.00  0.00     0.161 A 
HETATM    3  C3  UNL     1       1.852  -0.449   0.525  1.00  0.00     0.089 A 
HETATM    4  C4  UNL     1       1.850   0.850  -0.064  1.00  0.00     0.105 A 
HETATM    5  C5  UNL     1       3.057   1.576  -0.182  1.00  0.00     0.027 A 
HETATM    6  C6  UNL     1       4.270   1.018   0.281  1.00  0.00     0.032 A 
HETATM    7  O1  UNL     1       0.703   1.400  -0.516  1.00  0.00    -0.307 OA
HETATM    8  C7  UNL     1      -0.502   0.801  -0.451  1.00  0.00     0.107 A 
HETATM    9  C8  UNL     1      -0.645  -0.498   0.119  1.00  0.00     0.087 A 
HETATM   10  C9  UNL     1       0.564  -1.217   0.652  1.00  0.00     0.203 A 
HETATM   11  O2  UNL     1       0.506  -2.322   1.143  1.00  0.00    -0.286 OA
HETATM   12  C10 UNL     1      -1.930  -1.100   0.178  1.00  0.00     0.138 A 
HETATM   13  C11 UNL     1      -3.057  -0.412  -0.330  1.00  0.00     0.052 A 
HETATM   14  C12 UNL     1      -2.912   0.873  -0.898  1.00  0.00     0.098 A 
HETATM   15  C13 UNL     1      -1.635   1.479  -0.957  1.00  0.00     0.049 A 
HETATM   16  O4  UNL     1      -2.100  -2.320   0.709  1.00  0.00    -0.190 OA
HETATM   17  O5  UNL     1       3.111  -2.225   1.543  1.00  0.00    -0.188 OA
HETATM   18  O6  UNL     1       5.434  -0.793   1.301  1.00  0.00    -0.188 OA
ENDROOT
BRANCH  14  19
HETATM   19  O3  UNL     1      -3.983   1.520  -1.379  1.00  0.00    -0.328 OA
HETATM   20  C14 UNL     1      -5.236   0.856  -1.338  1.00  0.00     0.181 C 
ENDBRANCH  14  19
TORSDOF 1
