REMARK  4 active torsions:
REMARK  status: ('A' for Active; 'I' for Inactive)
REMARK    1  A    between atoms: C6_6  and  O1_7 
REMARK    2  A    between atoms: C11_14  and  O5_19 
REMARK    3  A    between atoms: O5_19  and  C15_20 
REMARK    4  A    between atoms: C16_22  and  C20_29 
ROOT
HETATM    1  C1  UNL     1      -5.254   1.350  -0.471  1.00  0.00     0.052 A 
HETATM    2  C2  UNL     1      -4.129   0.658   0.039  1.00  0.00     0.138 A 
HETATM    3  C3  UNL     1      -2.840   1.258  -0.020  1.00  0.00     0.087 A 
HETATM    4  C4  UNL     1      -2.695   2.557  -0.588  1.00  0.00     0.107 A 
HETATM    5  C5  UNL     1      -3.826   3.238  -1.096  1.00  0.00     0.049 A 
HETATM    6  C6  UNL     1      -5.104   2.635  -1.037  1.00  0.00     0.098 A 
HETATM    7  O2  UNL     1      -1.486   3.153  -0.650  1.00  0.00    -0.305 OA
HETATM    8  C8  UNL     1      -0.342   2.596  -0.197  1.00  0.00     0.130 A 
HETATM    9  C9  UNL     1      -0.346   1.299   0.391  1.00  0.00     0.086 A 
HETATM   10  C10 UNL     1      -1.635   0.535   0.516  1.00  0.00     0.203 A 
HETATM   11  O3  UNL     1      -1.697  -0.570   1.004  1.00  0.00    -0.286 OA
HETATM   12  C11 UNL     1       0.877   0.736   0.855  1.00  0.00     0.102 A 
HETATM   13  C12 UNL     1       2.082   1.467   0.734  1.00  0.00     0.027 A 
HETATM   14  C13 UNL     1       2.078   2.756   0.154  1.00  0.00     0.032 A 
HETATM   15  C14 UNL     1       0.869   3.319  -0.313  1.00  0.00     0.154 A 
HETATM   16  O4  UNL     1       0.873   4.541  -0.861  1.00  0.00    -0.188 OA
HETATM   17  O11 UNL     1      -4.301  -0.560   0.570  1.00  0.00    -0.190 OA
ENDROOT
BRANCH  12  18
HETATM   18  O5  UNL     1       0.910  -0.482   1.410  1.00  0.00    -0.303 OA
BRANCH  18  19
HETATM   19  C15 UNL     1       2.115  -1.228   1.313  1.00  0.00     0.274 C 
HETATM   20  O6  UNL     1       2.508  -1.285  -0.053  1.00  0.00    -0.326 OA
HETATM   21  C16 UNL     1       3.734  -1.965  -0.295  1.00  0.00     0.184 C 
HETATM   22  C17 UNL     1       3.605  -3.437   0.162  1.00  0.00     0.215 C 
HETATM   23  C18 UNL     1       3.154  -3.533   1.637  1.00  0.00     0.220 C 
HETATM   24  O9  UNL     1       4.859  -4.074   0.000  1.00  0.00    -0.218 OA
HETATM   25  C19 UNL     1       1.900  -2.658   1.854  1.00  0.00     0.241 C 
HETATM   26  O8  UNL     1       2.861  -4.881   1.965  1.00  0.00    -0.218 OA
HETATM   27  O7  UNL     1       1.600  -2.578   3.234  1.00  0.00    -0.215 OA
BRANCH  21  28
HETATM   28  C20 UNL     1       4.025  -1.826  -1.793  1.00  0.00     0.214 C 
HETATM   29  O10 UNL     1       4.297  -0.471  -2.064  1.00  0.00    -0.218 OA
ENDBRANCH  21  28
ENDBRANCH  18  19
ENDBRANCH  12  18
BRANCH   6  30
HETATM   30  O1  UNL     1      -6.172   3.283  -1.520  1.00  0.00    -0.328 OA
HETATM   31  C7  UNL     1      -7.426   2.619  -1.484  1.00  0.00     0.181 C 
ENDBRANCH   6  30
TORSDOF 4
