REMARK  7 active torsions:
REMARK  status: ('A' for Active; 'I' for Inactive)
REMARK    1  A    between atoms: C7_10  and  O4_14 
REMARK    2  A    between atoms: C8_11  and  C9_12 
REMARK    3  A    between atoms: O4_14  and  C11_15 
REMARK    4  A    between atoms: C12_17  and  C16_24 
REMARK    5  A    between atoms: C16_24  and  O9_25 
REMARK    6  A    between atoms: O9_25  and  C17_26 
REMARK    7  A    between atoms: C18_28  and  C22_35 
ROOT
HETATM    1  C11 UNL     1      -1.336  -0.129  -1.883  1.00  0.00     0.272 C 
HETATM    2  O5  UNL     1      -0.016   0.131  -1.426  1.00  0.00    -0.326 OA
HETATM    3  C12 UNL     1       0.980  -0.736  -1.947  1.00  0.00     0.180 C 
HETATM    4  C13 UNL     1       1.043  -0.582  -3.484  1.00  0.00     0.215 C 
HETATM    5  C14 UNL     1      -0.342  -0.818  -4.129  1.00  0.00     0.220 C 
HETATM    6  C15 UNL     1      -1.406   0.049  -3.420  1.00  0.00     0.241 C 
HETATM    7  O6  UNL     1      -2.697  -0.326  -3.877  1.00  0.00    -0.215 OA
HETATM    8  O7  UNL     1      -0.293  -0.488  -5.508  1.00  0.00    -0.218 OA
HETATM    9  O8  UNL     1       1.977  -1.518  -3.998  1.00  0.00    -0.218 OA
ENDROOT
BRANCH   1  10
HETATM   10  O4  UNL     1      -2.215   0.773  -1.238  1.00  0.00    -0.303 OA
BRANCH  10  11
HETATM   11  C7  UNL     1      -2.373   0.508   0.143  1.00  0.00     0.246 C 
HETATM   12  O3  UNL     1      -2.900  -0.813   0.330  1.00  0.00    -0.303 OA
HETATM   13  C6  UNL     1      -4.236  -1.002   0.289  1.00  0.00     0.120 C 
HETATM   14  C4  UNL     1      -5.164  -0.016   0.252  1.00  0.00     0.065 C 
HETATM   15  C3  UNL     1      -4.705   1.424   0.217  1.00  0.00     0.041 C 
HETATM   16  C5  UNL     1      -6.627  -0.291   0.266  1.00  0.00     0.294 C 
HETATM   17  C2  UNL     1      -5.758   2.330   0.861  1.00  0.00     0.038 C 
HETATM   18  C8  UNL     1      -3.283   1.570   0.793  1.00  0.00     0.083 C 
HETATM   19  C1  UNL     1      -7.115   2.057   0.203  1.00  0.00     0.152 C 
HETATM   20  O1  UNL     1      -7.529   0.699   0.404  1.00  0.00    -0.299 OA
HETATM   21  O2  UNL     1      -6.992  -1.439   0.166  1.00  0.00    -0.259 OA
BRANCH  18  22
HETATM   22  C9  UNL     1      -3.250   1.434   2.299  1.00  0.00    -0.021 C 
HETATM   23  C10 UNL     1      -2.844   2.482   3.029  1.00  0.00    -0.005 C 
ENDBRANCH  18  22
ENDBRANCH  10  11
ENDBRANCH   1  10
BRANCH   3  24
HETATM   24  C16 UNL     1       2.297  -0.361  -1.258  1.00  0.00     0.177 C 
BRANCH  24  25
HETATM   25  O9  UNL     1       2.189  -0.695   0.107  1.00  0.00    -0.326 OA
BRANCH  25  26
HETATM   26  C17 UNL     1       3.332  -0.342   0.859  1.00  0.00     0.270 C 
HETATM   27  O10 UNL     1       4.408  -1.180   0.459  1.00  0.00    -0.326 OA
HETATM   28  C18 UNL     1       5.650  -0.906   1.094  1.00  0.00     0.184 C 
HETATM   29  C19 UNL     1       5.508  -1.129   2.617  1.00  0.00     0.215 C 
HETATM   30  C20 UNL     1       4.350  -0.289   3.199  1.00  0.00     0.220 C 
HETATM   31  O13 UNL     1       6.725  -0.768   3.244  1.00  0.00    -0.218 OA
HETATM   32  C21 UNL     1       3.063  -0.521   2.375  1.00  0.00     0.241 C 
HETATM   33  O12 UNL     1       4.125  -0.654   4.553  1.00  0.00    -0.218 OA
HETATM   34  O11 UNL     1       2.066   0.402   2.787  1.00  0.00    -0.215 OA
BRANCH  28  35
HETATM   35  C22 UNL     1       6.686  -1.834   0.451  1.00  0.00     0.214 C 
HETATM   36  O14 UNL     1       6.859  -1.439  -0.891  1.00  0.00    -0.218 OA
ENDBRANCH  28  35
ENDBRANCH  25  26
ENDBRANCH  24  25
ENDBRANCH   3  24
TORSDOF 7
