REMARK  5 active torsions:
REMARK  status: ('A' for Active; 'I' for Inactive)
REMARK    1  A    between atoms: C6_6  and  O1_7 
REMARK    2  A    between atoms: O1_7  and  C7_8 
REMARK    3  A    between atoms: C9_11  and  C12_15 
REMARK    4  A    between atoms: C17_21  and  O7_34 
REMARK    5  A    between atoms: O7_34  and  C28_35 
ROOT
HETATM    1  C1  UNL     1       0.995   0.762   1.336  1.00  0.00     0.180 C 
HETATM    2  C2  UNL     1       1.011  -0.439   0.364  1.00  0.00     0.040 C 
HETATM    3  C3  UNL     1       2.393  -1.158   0.181  1.00  0.00     0.053 C 
HETATM    4  C4  UNL     1       3.475  -0.062   0.002  1.00  0.00     0.122 A 
HETATM    5  C5  UNL     1       3.152   1.438   0.125  1.00  0.00     0.057 C 
HETATM    6  C6  UNL     1       2.272   1.616   1.371  1.00  0.00     0.157 C 
HETATM    7  C9  UNL     1       4.576   2.062   0.259  1.00  0.00     0.032 C 
HETATM    8  C10 UNL     1       5.400   1.198  -0.723  1.00  0.00     0.037 C 
HETATM    9  C11 UNL     1       4.776  -0.188  -0.604  1.00  0.00     0.140 A 
HETATM   10  O3  UNL     1       4.821  -0.561   0.745  1.00  0.00    -0.357 OA
HETATM   11  C16 UNL     1       2.488   2.063  -1.128  1.00  0.00     0.005 C 
HETATM   12  C17 UNL     1       2.350  -2.114  -1.052  1.00  0.00     0.127 C 
HETATM   13  C18 UNL     1       1.102  -3.022  -1.088  1.00  0.00     0.033 C 
HETATM   14  C19 UNL     1      -0.151  -2.161  -0.963  1.00  0.00     0.030 C 
HETATM   15  C20 UNL     1      -0.223  -1.388   0.366  1.00  0.00     0.037 C 
HETATM   16  C21 UNL     1      -1.629  -0.807   0.127  1.00  0.00     0.123 C 
HETATM   17  O5  UNL     1      -2.389  -1.784  -0.553  1.00  0.00    -0.361 OA
HETATM   18  C22 UNL     1      -1.558  -2.679  -1.233  1.00  0.00     0.093 C 
HETATM   19  C23 UNL     1      -1.905  -2.632  -2.731  1.00  0.00     0.030 C 
HETATM   20  C24 UNL     1      -1.837  -4.106  -0.747  1.00  0.00     0.030 C 
HETATM   21  C25 UNL     1      -2.286  -0.596   1.488  1.00  0.00     0.094 C 
HETATM   22  C26 UNL     1      -1.752  -1.781   2.260  1.00  0.00     0.153 C 
HETATM   23  C27 UNL     1      -0.419  -2.199   1.669  1.00  0.00     0.067 C 
HETATM   24  O6  UNL     1      -2.294  -2.304   3.206  1.00  0.00    -0.296 OA
HETATM   25  C30 UNL     1       2.714  -2.036   1.419  1.00  0.00     0.005 C 
HETATM   26  O9  UNL     1       0.709   0.331   2.644  1.00  0.00    -0.221 OA
ENDROOT
BRANCH   7  27
HETATM   27  C12 UNL     1       4.740   3.544   0.087  1.00  0.00     0.004 A 
HETATM   28  C13 UNL     1       4.762   4.516   1.142  1.00  0.00     0.025 A 
HETATM   29  C14 UNL     1       4.944   5.725   0.544  1.00  0.00     0.122 A 
HETATM   30  O4  UNL     1       5.043   5.585  -0.808  1.00  0.00    -0.303 OA
HETATM   31  C15 UNL     1       4.926   4.251  -1.064  1.00  0.00     0.118 A 
ENDBRANCH   7  27
BRANCH   6  32
HETATM   32  O1  UNL     1       1.986   2.979   1.506  1.00  0.00    -0.302 OA
BRANCH  32  33
HETATM   33  C7  UNL     1       1.494   3.429   2.688  1.00  0.00     0.272 C 
HETATM   34  C8  UNL     1       1.303   4.932   2.649  1.00  0.00     0.106 C 
HETATM   35  O2  UNL     1       1.247   2.729   3.643  1.00  0.00    -0.264 OA
ENDBRANCH  32  33
ENDBRANCH   6  32
BRANCH  12  36
HETATM   36  O7  UNL     1       2.394  -1.331  -2.215  1.00  0.00    -0.304 OA
BRANCH  36  37
HETATM   37  C28 UNL     1       3.088  -1.659  -3.342  1.00  0.00     0.272 C 
HETATM   38  O8  UNL     1       3.135  -0.912  -4.296  1.00  0.00    -0.264 OA
HETATM   39  C29 UNL     1       3.789  -3.005  -3.363  1.00  0.00     0.106 C 
ENDBRANCH  36  37
ENDBRANCH  12  36
TORSDOF 5
