REMARK  3 active torsions:
REMARK  status: ('A' for Active; 'I' for Inactive)
REMARK    1  A    between atoms: C3_3  and  C21_24 
REMARK    2  A    between atoms: C9_9  and  O1_11 
REMARK    3  A    between atoms: O1_11  and  C11_12 
ROOT
HETATM    1  C1  UNL     1      -2.658   1.419   0.267  1.00  0.00     0.000 C 
HETATM    2  C2  UNL     1      -2.770  -0.108   0.346  1.00  0.00     0.003 C 
HETATM    3  C3  UNL     1      -1.784  -0.849  -0.593  1.00  0.00     0.031 C 
HETATM    4  C4  UNL     1      -0.338  -0.297  -0.346  1.00  0.00     0.007 C 
HETATM    5  C5  UNL     1      -0.119   1.237  -0.232  1.00  0.00     0.026 C 
HETATM    6  C6  UNL     1      -1.239   1.853   0.650  1.00  0.00     0.002 C 
HETATM    7  C7  UNL     1       1.307   1.523   0.383  1.00  0.00     0.129 C 
HETATM    8  C8  UNL     1       2.390   0.430   0.114  1.00  0.00     0.051 C 
HETATM    9  C9  UNL     1       2.130  -0.293  -1.207  1.00  0.00     0.126 C 
HETATM   10  C10 UNL     1       0.754  -0.970  -1.205  1.00  0.00     0.030 C 
HETATM   11  C13 UNL     1       2.582  -0.550   1.309  1.00  0.00     0.005 C 
HETATM   12  C14 UNL     1       3.293   0.301   2.349  1.00  0.00     0.000 A 
HETATM   13  C15 UNL     1       2.755   1.703   2.510  1.00  0.00     0.002 A 
HETATM   14  C16 UNL     1       1.361   1.803   1.897  1.00  0.00     0.030 C 
HETATM   15  C17 UNL     1       3.978   1.444   1.646  1.00  0.00     0.000 A 
HETATM   16  C18 UNL     1       3.790   1.105   0.173  1.00  0.00     0.005 C 
HETATM   17  C19 UNL     1       3.954  -0.358   3.539  1.00  0.00     0.000 C 
HETATM   18  O3  UNL     1       1.743   2.735  -0.189  1.00  0.00    -0.226 OA
HETATM   19  C20 UNL     1      -0.258   1.909  -1.627  1.00  0.00     0.002 C 
HETATM   20  C22 UNL     1      -2.329  -0.740  -2.037  1.00  0.00     0.003 C 
ENDROOT
BRANCH   9  21
HETATM   21  O1  UNL     1       3.133  -1.242  -1.446  1.00  0.00    -0.304 OA
BRANCH  21  22
HETATM   22  C11 UNL     1       3.249  -1.753  -2.701  1.00  0.00     0.272 C 
HETATM   23  C12 UNL     1       4.315  -2.830  -2.722  1.00  0.00     0.106 C 
HETATM   24  O2  UNL     1       2.595  -1.414  -3.661  1.00  0.00    -0.264 OA
ENDBRANCH  21  22
ENDBRANCH   9  21
BRANCH   3  25
HETATM   25  C21 UNL     1      -1.869  -2.347  -0.203  1.00  0.00     0.182 C 
HETATM   26  O4  UNL     1      -1.316  -3.191  -1.194  1.00  0.00    -0.221 OA
ENDBRANCH   3  25
TORSDOF 3
