REMARK  0 active torsions:
REMARK  status: ('A' for Active; 'I' for Inactive)
ROOT
HETATM    1  C1  UNL     1      -2.143   0.100  -1.277  1.00  0.00     0.203 C 
HETATM    2  C2  UNL     1      -2.399  -1.254  -0.748  1.00  0.00     0.032 C 
HETATM    3  C3  UNL     1      -1.425  -1.958  -0.141  1.00  0.00    -0.041 C 
HETATM    4  C4  UNL     1      -0.016  -1.413   0.030  1.00  0.00     0.024 C 
HETATM    5  C5  UNL     1       0.055   0.136   0.056  1.00  0.00     0.042 C 
HETATM    6  C6  UNL     1      -0.736   0.642  -1.168  1.00  0.00     0.213 C 
HETATM    7  O1  UNL     1      -0.845   2.055  -1.171  1.00  0.00    -0.215 OA
HETATM    8  C7  UNL     1       1.532   0.645  -0.018  1.00  0.00     0.039 C 
HETATM    9  C8  UNL     1       2.650  -0.439   0.004  1.00  0.00     0.040 C 
HETATM   10  C9  UNL     1       2.336  -1.462  -1.109  1.00  0.00     0.153 C 
HETATM   11  C10 UNL     1       0.933  -2.078  -0.986  1.00  0.00     0.037 C 
HETATM   12  O2  UNL     1       2.426  -0.884  -2.394  1.00  0.00    -0.223 OA
HETATM   13  C11 UNL     1       4.026   0.261  -0.219  1.00  0.00     0.091 C 
HETATM   14  C12 UNL     1       4.328   1.273   0.893  1.00  0.00     0.040 C 
HETATM   15  C13 UNL     1       3.381   2.364   0.404  1.00  0.00     0.155 C 
HETATM   16  C14 UNL     1       1.927   1.961   0.689  1.00  0.00     0.180 C 
HETATM   17  O3  UNL     1       1.780   1.872   2.086  1.00  0.00    -0.221 OA
HETATM   18  O4  UNL     1       3.600   2.427  -0.977  1.00  0.00    -0.302 OA
HETATM   19  C15 UNL     1       4.030   1.210  -1.406  1.00  0.00     0.272 C 
HETATM   20  O5  UNL     1       4.331   0.916  -2.540  1.00  0.00    -0.264 OA
HETATM   21  C16 UNL     1       5.798   1.719   0.923  1.00  0.00     0.003 C 
HETATM   22  C17 UNL     1       2.773  -1.219   1.340  1.00  0.00     0.003 C 
HETATM   23  C18 UNL     1      -0.665   0.609   1.343  1.00  0.00     0.003 C 
HETATM   24  C19 UNL     1      -1.692  -3.343   0.401  1.00  0.00     0.026 C 
HETATM   25  O6  UNL     1      -2.985   0.819  -1.799  1.00  0.00    -0.289 OA
ENDROOT
TORSDOF 0
