REMARK  3 active torsions:
REMARK  status: ('A' for Active; 'I' for Inactive)
REMARK    1  A    between atoms: C1_1  and  C15_18 
REMARK    2  A    between atoms: C4_4  and  C13_13 
REMARK    3  A    between atoms: C13_13  and  O2_15 
ROOT
HETATM    1  C1  UNL     1      -1.351   1.996   0.682  1.00  0.00     0.148 C 
HETATM    2  C2  UNL     1       0.135   2.147   0.365  1.00  0.00     0.068 C 
HETATM    3  C3  UNL     1       0.951   0.864   0.489  1.00  0.00     0.164 C 
HETATM    4  C4  UNL     1       0.460  -0.321  -0.390  1.00  0.00     0.106 C 
HETATM    5  C5  UNL     1      -1.109  -0.451  -0.251  1.00  0.00     0.013 C 
HETATM    6  C6  UNL     1      -1.941   0.877  -0.205  1.00  0.00     0.033 C 
HETATM    7  C7  UNL     1      -2.356   1.445  -1.585  1.00  0.00     0.003 C 
HETATM    8  C8  UNL     1      -1.254  -1.217   1.094  1.00  0.00     0.001 C 
HETATM    9  C9  UNL     1      -0.057  -2.173   1.190  1.00  0.00     0.001 C 
HETATM   10  C10 UNL     1       0.956  -1.708   0.121  1.00  0.00     0.011 C 
HETATM   11  C11 UNL     1       1.175  -2.830  -0.920  1.00  0.00     0.001 C 
HETATM   12  C12 UNL     1      -1.779  -1.411  -1.275  1.00  0.00     0.001 C 
HETATM   13  O3  UNL     1       1.087   0.513   1.846  1.00  0.00    -0.223 OA
HETATM   14  O4  UNL     1      -1.954   3.239   0.371  1.00  0.00    -0.221 OA
ENDROOT
BRANCH   4  15
HETATM   15  C13 UNL     1       0.940  -0.003  -1.822  1.00  0.00     0.273 C 
HETATM   16  O1  UNL     1       0.152   0.321  -2.684  1.00  0.00    -0.264 OA
BRANCH  15  17
HETATM   17  O2  UNL     1       2.278   0.038  -2.125  1.00  0.00    -0.299 OA
HETATM   18  C14 UNL     1       3.358  -0.454  -1.366  1.00  0.00     0.184 C 
ENDBRANCH  15  17
ENDBRANCH   4  15
BRANCH   1  19
HETATM   19  C15 UNL     1      -1.631   1.826   2.162  1.00  0.00     0.004 C 
HETATM   20  C16 UNL     1      -2.866   1.768   2.681  1.00  0.00    -0.002 C 
ENDBRANCH   1  19
TORSDOF 3
