REMARK  1 active torsions:
REMARK  status: ('A' for Active; 'I' for Inactive)
REMARK    1  A    between atoms: C9_9  and  C11_12 
ROOT
HETATM    1  C1  UNL     1      -2.469   1.297   0.856  1.00  0.00     0.005 C 
HETATM    2  C2  UNL     1      -2.496  -0.191   0.492  1.00  0.00     0.022 C 
HETATM    3  C3  UNL     1      -1.124  -0.820   0.484  1.00  0.00    -0.045 C 
HETATM    4  C4  UNL     1       0.005  -0.083   0.467  1.00  0.00     0.006 C 
HETATM    5  C5  UNL     1       0.038   1.431   0.491  1.00  0.00     0.021 C 
HETATM    6  C6  UNL     1      -1.343   1.993   0.084  1.00  0.00     0.004 C 
HETATM    7  C7  UNL     1       1.101   1.917  -0.522  1.00  0.00     0.007 C 
HETATM    8  C8  UNL     1       2.457   1.195  -0.401  1.00  0.00     0.038 C 
HETATM    9  C9  UNL     1       2.336  -0.325  -0.562  1.00  0.00     0.181 C 
HETATM   10  C10 UNL     1       1.333  -0.785   0.495  1.00  0.00     0.196 C 
HETATM   11  O1  UNL     1       1.594  -1.598   1.368  1.00  0.00    -0.289 OA
HETATM   12  O2  UNL     1       1.798  -0.578  -1.842  1.00  0.00    -0.218 OA
HETATM   13  C14 UNL     1       0.409   1.906   1.917  1.00  0.00     0.004 C 
HETATM   14  C15 UNL     1      -1.112  -2.329   0.420  1.00  0.00     0.026 C 
ENDROOT
BRANCH   9  15
HETATM   15  C11 UNL     1       3.676  -1.087  -0.451  1.00  0.00     0.035 C 
HETATM   16  C12 UNL     1       3.532  -2.599  -0.730  1.00  0.00     0.003 C 
HETATM   17  C13 UNL     1       4.777  -0.545  -1.385  1.00  0.00     0.003 C 
ENDBRANCH   9  15
TORSDOF 1
