REMARK  5 active torsions:
REMARK  status: ('A' for Active; 'I' for Inactive)
REMARK    1  A    between atoms: C3_3  and  C13_15 
REMARK    2  A    between atoms: C4_4  and  O1_8 
REMARK    3  A    between atoms: O1_8  and  C8_9 
REMARK    4  A    between atoms: C8_9  and  C9_10 
REMARK    5  A    between atoms: C13_15  and  C14_16 
ROOT
HETATM    1  C1  UNL     1      -0.481  -3.210  -0.058  1.00  0.00    -0.004 A 
HETATM    2  C2  UNL     1      -1.343  -2.389   0.666  1.00  0.00    -0.000 A 
HETATM    3  C3  UNL     1      -1.024  -1.048   0.897  1.00  0.00     0.030 A 
HETATM    4  C4  UNL     1       0.186  -0.501   0.438  1.00  0.00     0.101 A 
HETATM    5  C5  UNL     1       1.025  -1.352  -0.299  1.00  0.00     0.020 A 
HETATM    6  C6  UNL     1       0.719  -2.694  -0.552  1.00  0.00    -0.020 A 
HETATM    7  C7  UNL     1       1.664  -3.563  -1.344  1.00  0.00     0.031 C 
ENDROOT
BRANCH   4   8
HETATM    8  O1  UNL     1       0.483   0.806   0.723  1.00  0.00    -0.274 OA
BRANCH   8   9
HETATM    9  C8  UNL     1       1.574   1.364   0.118  1.00  0.00     0.296 C 
HETATM   10  O2  UNL     1       2.689   1.164   0.593  1.00  0.00    -0.259 OA
BRANCH   9  11
HETATM   11  C9  UNL     1       1.482   2.225  -1.102  1.00  0.00     0.037 C 
HETATM   12  C10 UNL     1       2.787   2.708  -1.690  1.00  0.00     0.036 C 
HETATM   13  C11 UNL     1       0.260   2.517  -1.602  1.00  0.00    -0.025 C 
HETATM   14  C12 UNL     1      -0.068   3.369  -2.801  1.00  0.00     0.030 C 
ENDBRANCH   9  11
ENDBRANCH   8   9
ENDBRANCH   4   8
BRANCH   3  15
HETATM   15  C13 UNL     1      -1.945  -0.247   1.684  1.00  0.00     0.171 A 
HETATM   16  C15 UNL     1      -3.242   0.055   1.147  1.00  0.00     0.177 A 
HETATM   17  O4  UNL     1      -2.363   1.145   1.015  1.00  0.00    -0.347 OA
BRANCH  15  18
HETATM   18  C14 UNL     1      -1.691  -0.169   3.175  1.00  0.00     0.216 C 
HETATM   19  O3  UNL     1      -1.506  -1.491   3.667  1.00  0.00    -0.218 OA
ENDBRANCH  15  18
ENDBRANCH   3  15
TORSDOF 5
