REMARK  2 active torsions:
REMARK  status: ('A' for Active; 'I' for Inactive)
REMARK    1  A    between atoms: C3_3  and  C20_20 
REMARK    2  A    between atoms: C12_12  and  C15_15 
ROOT
HETATM    1  C1  UNL     1       0.147   3.209  -0.092  1.00  0.00     0.001 C 
HETATM    2  C2  UNL     1      -1.170   2.458  -0.313  1.00  0.00     0.010 C 
HETATM    3  C3  UNL     1      -1.265   1.157   0.521  1.00  0.00     0.079 C 
HETATM    4  C4  UNL     1      -0.003   0.304   0.204  1.00  0.00     0.014 C 
HETATM    5  C5  UNL     1       1.372   0.998   0.416  1.00  0.00     0.019 C 
HETATM    6  C6  UNL     1       1.357   2.315  -0.399  1.00  0.00     0.004 C 
HETATM    7  C7  UNL     1       2.508   0.082  -0.066  1.00  0.00    -0.027 A 
HETATM    8  C8  UNL     1       2.324  -1.293  -0.291  1.00  0.00    -0.026 A 
HETATM    9  C9  UNL     1       0.994  -1.974  -0.082  1.00  0.00     0.026 C 
HETATM   10  C10 UNL     1       0.025  -1.131   0.753  1.00  0.00     0.005 C 
HETATM   11  C11 UNL     1       3.394  -2.082  -0.730  1.00  0.00    -0.005 A 
HETATM   12  C12 UNL     1       4.679  -1.565  -0.930  1.00  0.00    -0.004 A 
HETATM   13  C13 UNL     1       4.870  -0.204  -0.665  1.00  0.00    -0.001 A 
HETATM   14  C14 UNL     1       3.804   0.590  -0.241  1.00  0.00    -0.005 A 
HETATM   15  C18 UNL     1       1.695   1.312   1.894  1.00  0.00     0.004 C 
HETATM   16  C19 UNL     1      -2.569   0.445   0.088  1.00  0.00     0.011 C 
ENDROOT
BRANCH   3  17
HETATM   17  C20 UNL     1      -1.469   1.515   1.992  1.00  0.00     0.184 C 
HETATM   18  O1  UNL     1      -1.294   0.473   2.821  1.00  0.00    -0.647 OA
HETATM   19  O2  UNL     1      -1.815   2.587   2.431  1.00  0.00    -0.647 OA
ENDBRANCH   3  17
BRANCH  12  20
HETATM   20  C15 UNL     1       5.780  -2.442  -1.396  1.00  0.00    -0.022 C 
HETATM   21  C16 UNL     1       5.487  -3.575  -2.353  1.00  0.00     0.031 C 
HETATM   22  C17 UNL     1       7.044  -2.242  -0.977  1.00  0.00    -0.005 C 
ENDBRANCH  12  20
TORSDOF 2
