REMARK  7 active torsions:
REMARK  status: ('A' for Active; 'I' for Inactive)
REMARK    1  A    between atoms: C11_11  and  C12_12 
REMARK    2  A    between atoms: C12_12  and  C13_13 
REMARK    3  A    between atoms: C13_13  and  C14_14 
REMARK    4  A    between atoms: C14_14  and  C15_15 
REMARK    5  A    between atoms: C16_16  and  C18_18 
REMARK    6  A    between atoms: C18_18  and  C19_19 
REMARK    7  A    between atoms: C19_19  and  C20_20 
ROOT
HETATM    1  C1  UNL     1      -1.531   2.301  -1.323  1.00  0.00     0.000 C 
HETATM    2  C2  UNL     1      -1.552   0.850  -1.810  1.00  0.00     0.000 C 
HETATM    3  C3  UNL     1      -0.548  -0.052  -1.054  1.00  0.00     0.000 C 
HETATM    4  C4  UNL     1      -0.773   0.068   0.486  1.00  0.00     0.004 C 
HETATM    5  C5  UNL     1      -0.933   1.510   1.042  1.00  0.00     0.015 C 
HETATM    6  C6  UNL     1      -1.893   2.335   0.161  1.00  0.00     0.004 C 
HETATM    7  C7  UNL     1       0.433   2.137   1.197  1.00  0.00    -0.052 C 
HETATM    8  C8  UNL     1       1.544   1.454   1.507  1.00  0.00    -0.052 C 
HETATM    9  C9  UNL     1       1.558  -0.045   1.664  1.00  0.00     0.021 C 
HETATM   10  C10 UNL     1       0.212  -0.731   1.367  1.00  0.00     0.004 C 
HETATM   11  C11 UNL     1       2.740   2.363   1.783  1.00  0.00     0.015 C 
HETATM   12  C25 UNL     1       1.968   3.696   2.026  1.00  0.00     0.008 C 
HETATM   13  C26 UNL     1       0.657   3.620   1.228  1.00  0.00     0.022 C 
HETATM   14  C27 UNL     1       3.450   1.944   3.085  1.00  0.00     0.004 C 
HETATM   15  C28 UNL     1      -1.541   1.500   2.469  1.00  0.00     0.004 C 
HETATM   16  C29 UNL     1      -0.822  -1.503  -1.530  1.00  0.00     0.000 C 
HETATM   17  C30 UNL     1       0.881   0.301  -1.511  1.00  0.00     0.000 C 
ENDROOT
BRANCH  11  18
HETATM   18  C12 UNL     1       3.735   2.526   0.590  1.00  0.00     0.004 C 
HETATM   19  C24 UNL     1       4.893   3.494   0.924  1.00  0.00     0.000 C 
BRANCH  18  20
HETATM   20  C13 UNL     1       4.326   1.192   0.081  1.00  0.00     0.005 C 
BRANCH  20  21
HETATM   21  C14 UNL     1       5.358   1.269  -1.060  1.00  0.00     0.025 C 
BRANCH  21  22
HETATM   22  C15 UNL     1       5.938  -0.108  -1.302  1.00  0.00    -0.034 C 
HETATM   23  C16 UNL     1       7.212  -0.506  -1.122  1.00  0.00    -0.048 C 
HETATM   24  C17 UNL     1       8.346   0.410  -0.712  1.00  0.00     0.026 C 
BRANCH  23  25
HETATM   25  C18 UNL     1       7.663  -1.947  -1.290  1.00  0.00     0.026 C 
BRANCH  25  26
HETATM   26  C19 UNL     1       6.570  -3.019  -1.438  1.00  0.00     0.029 C 
BRANCH  26  27
HETATM   27  C20 UNL     1       7.151  -4.413  -1.491  1.00  0.00    -0.034 C 
HETATM   28  C21 UNL     1       6.479  -5.556  -1.264  1.00  0.00    -0.048 C 
HETATM   29  C22 UNL     1       7.169  -6.899  -1.329  1.00  0.00     0.026 C 
HETATM   30  C23 UNL     1       5.007  -5.620  -0.935  1.00  0.00     0.026 C 
ENDBRANCH  26  27
ENDBRANCH  25  26
ENDBRANCH  23  25
ENDBRANCH  21  22
ENDBRANCH  20  21
ENDBRANCH  18  20
ENDBRANCH  11  18
TORSDOF 7
