REMARK  3 active torsions:
REMARK  status: ('A' for Active; 'I' for Inactive)
REMARK    1  A    between atoms: C2_2  and  C20_23 
REMARK    2  A    between atoms: C7_7  and  C11_12 
REMARK    3  A    between atoms: C11_12  and  C15_18 
ROOT
HETATM    1  C1  UNL     1      -0.552   3.229  -1.318  1.00  0.00     0.007 C 
HETATM    2  C2  UNL     1      -1.528   2.199  -1.931  1.00  0.00     0.059 C 
HETATM    3  C3  UNL     1      -1.110   0.727  -1.601  1.00  0.00     0.011 C 
HETATM    4  C4  UNL     1      -0.290   0.519  -0.279  1.00  0.00     0.020 C 
HETATM    5  C5  UNL     1       0.950   1.451  -0.342  1.00  0.00     0.004 C 
HETATM    6  C6  UNL     1       0.866   2.666  -1.279  1.00  0.00     0.001 C 
HETATM    7  C7  UNL     1       0.161  -0.987  -0.161  1.00  0.00     0.015 C 
HETATM    8  C8  UNL     1      -1.069  -1.887  -0.319  1.00  0.00     0.167 C 
HETATM    9  C9  UNL     1      -1.835  -1.722  -1.614  1.00  0.00     0.069 C 
HETATM   10  C10 UNL     1      -2.284  -0.265  -1.741  1.00  0.00     0.009 C 
HETATM   11  O1  UNL     1      -1.422  -2.698   0.506  1.00  0.00    -0.292 OA
HETATM   12  C18 UNL     1      -1.204   0.904   0.908  1.00  0.00     0.004 C 
HETATM   13  C19 UNL     1      -1.540   2.395  -3.470  1.00  0.00     0.008 C 
ENDROOT
BRANCH   7  14
HETATM   14  C11 UNL     1       1.133  -1.535   0.945  1.00  0.00     0.119 C 
HETATM   15  O2  UNL     1       1.309  -2.900   0.645  1.00  0.00    -0.303 OA
HETATM   16  C12 UNL     1       2.582  -3.343   0.807  1.00  0.00     0.272 C 
HETATM   17  C13 UNL     1       3.434  -2.187   1.272  1.00  0.00     0.099 C 
HETATM   18  O3  UNL     1       2.961  -4.477   0.613  1.00  0.00    -0.264 OA
HETATM   19  C14 UNL     1       2.575  -1.016   0.805  1.00  0.00     0.042 C 
BRANCH  14  20
HETATM   20  C15 UNL     1       0.568  -1.425   2.396  1.00  0.00     0.029 C 
HETATM   21  C16 UNL     1       0.547  -2.729   3.228  1.00  0.00     0.003 C 
HETATM   22  C17 UNL     1       1.210  -0.338   3.283  1.00  0.00     0.003 C 
ENDBRANCH  14  20
ENDBRANCH   7  14
BRANCH   2  23
HETATM   23  C20 UNL     1      -2.960   2.531  -1.501  1.00  0.00     0.206 C 
HETATM   24  O4  UNL     1      -3.237   3.400  -0.708  1.00  0.00    -0.288 OA
ENDBRANCH   2  23
TORSDOF 3
