REMARK  10 active torsions:
REMARK  status: ('A' for Active; 'I' for Inactive)
REMARK    1  A    between atoms: C7_7  and  O1_8 
REMARK    2  A    between atoms: C9_10  and  C14_17 
REMARK    3  A    between atoms: C12_13  and  O2_14 
REMARK    4  A    between atoms: C14_17  and  O4_18 
REMARK    5  A    between atoms: N1_21  and  C18_23 
REMARK    6  A    between atoms: C22_27  and  O5_28 
REMARK    7  A    between atoms: O5_28  and  C23_29 
REMARK    8  A    between atoms: C23_29  and  C24_30 
REMARK    9  A    between atoms: C27_33  and  O6_36 
REMARK   10  A    between atoms: C31_39  and  O8_41 
ROOT
HETATM    1  C1  UNL     1       1.969  -1.536  -1.452  1.00  0.00     0.087 C 
HETATM    2  C2  UNL     1       2.963  -0.349  -1.457  1.00  0.00     0.136 C 
HETATM    3  C3  UNL     1       2.705   0.472  -0.197  1.00  0.00     0.059 C 
HETATM    4  C4  UNL     1       1.198   0.708  -0.120  1.00  0.00     0.012 C 
HETATM    5  C5  UNL     1       0.253  -0.524  -0.377  1.00  0.00     0.058 C 
HETATM    6  C6  UNL     1       0.595  -1.774   0.487  1.00  0.00     0.038 C 
HETATM    7  C7  UNL     1       1.929  -2.263  -0.101  1.00  0.00     0.120 C 
HETATM    8  C9  UNL     1      -0.598  -2.770   0.421  1.00  0.00     0.089 C 
HETATM    9  C10 UNL     1      -1.782  -2.073   1.127  1.00  0.00     0.159 C 
HETATM   10  C11 UNL     1      -2.298  -0.881   0.344  1.00  0.00     0.063 C 
HETATM   11  C12 UNL     1      -1.167   0.076  -0.040  1.00  0.00     0.120 C 
HETATM   12  O3  UNL     1      -2.869  -2.946   1.337  1.00  0.00    -0.223 OA
HETATM   13  C16 UNL     1      -0.896  -3.023  -1.076  1.00  0.00     0.255 C 
HETATM   14  N1  UNL     1      -0.828  -1.808  -1.895  1.00  0.00     0.135 N 
HETATM   15  C17 UNL     1       0.463  -1.064  -1.848  1.00  0.00     0.226 C 
HETATM   16  C20 UNL     1       1.068   1.945  -1.052  1.00  0.00     0.036 C 
HETATM   17  C21 UNL     1       2.493   2.429  -1.382  1.00  0.00     0.177 C 
HETATM   18  C22 UNL     1       3.311   1.869  -0.233  1.00  0.00     0.157 C 
HETATM   19  C31 UNL     1       2.941   1.927  -2.749  1.00  0.00     0.148 C 
HETATM   20  C32 UNL     1       2.872   0.397  -2.805  1.00  0.00     0.063 C 
HETATM   21  O9  UNL     1       2.570   3.828  -1.381  1.00  0.00    -0.221 OA
HETATM   22  O10 UNL     1       4.279  -0.839  -1.345  1.00  0.00    -0.226 OA
ENDROOT
BRANCH  18  23
HETATM   23  O5  UNL     1       4.675   1.818  -0.483  1.00  0.00    -0.298 OA
BRANCH  23  24
HETATM   24  C23 UNL     1       5.630   2.190   0.420  1.00  0.00     0.296 C 
HETATM   25  O7  UNL     1       6.796   2.157   0.035  1.00  0.00    -0.259 OA
BRANCH  24  26
HETATM   26  C24 UNL     1       5.447   2.648   1.838  1.00  0.00     0.063 A 
HETATM   27  C25 UNL     1       6.315   3.629   2.334  1.00  0.00     0.007 A 
HETATM   28  C26 UNL     1       6.166   4.119   3.632  1.00  0.00     0.024 A 
HETATM   29  C27 UNL     1       5.177   3.648   4.506  1.00  0.00     0.094 A 
HETATM   30  C28 UNL     1       4.319   2.663   3.989  1.00  0.00     0.024 A 
HETATM   31  C29 UNL     1       4.464   2.149   2.699  1.00  0.00     0.007 A 
BRANCH  29  32
HETATM   32  O6  UNL     1       5.053   4.234   5.740  1.00  0.00    -0.328 OA
HETATM   33  C30 UNL     1       3.809   4.138   6.393  1.00  0.00     0.181 C 
ENDBRANCH  29  32
ENDBRANCH  24  26
ENDBRANCH  23  24
ENDBRANCH  18  23
BRANCH  19  34
HETATM   34  O8  UNL     1       4.233   2.399  -3.009  1.00  0.00    -0.351 OA
HETATM   35  C33 UNL     1       4.508   2.569  -4.384  1.00  0.00     0.174 C 
ENDBRANCH  19  34
BRANCH   7  36
HETATM   36  O1  UNL     1       2.021  -3.647  -0.256  1.00  0.00    -0.354 OA
HETATM   37  C8  UNL     1       3.341  -4.125  -0.412  1.00  0.00     0.174 C 
ENDBRANCH   7  36
BRANCH  11  38
HETATM   38  O2  UNL     1      -1.591   0.909  -1.089  1.00  0.00    -0.354 OA
HETATM   39  C13 UNL     1      -2.664   1.770  -0.771  1.00  0.00     0.174 C 
ENDBRANCH  11  38
BRANCH  14  40
HETATM   40  C18 UNL     1      -1.311  -2.060  -3.257  1.00  0.00     0.250 C 
HETATM   41  C19 UNL     1      -1.309  -0.791  -4.125  1.00  0.00     0.037 C 
ENDBRANCH  14  40
BRANCH   8  42
HETATM   42  C14 UNL     1      -0.377  -4.116   1.151  1.00  0.00     0.147 C 
BRANCH  42  43
HETATM   43  O4  UNL     1       0.120  -3.873   2.442  1.00  0.00    -0.351 OA
HETATM   44  C15 UNL     1       0.506  -5.057   3.105  1.00  0.00     0.174 C 
ENDBRANCH  42  43
ENDBRANCH   8  42
TORSDOF 10
