REMARK  0 active torsions:
REMARK  status: ('A' for Active; 'I' for Inactive)
ROOT
HETATM    1  C1  UNL     1      -0.701   1.249  -0.416  1.00  0.00     0.149 C 
HETATM    2  C2  UNL     1      -0.708  -0.303  -0.360  1.00  0.00     0.087 C 
HETATM    3  C3  UNL     1       0.521  -0.962   0.286  1.00  0.00     0.134 C 
HETATM    4  C4  UNL     1       1.857  -0.537  -0.354  1.00  0.00     0.056 C 
HETATM    5  C5  UNL     1       2.563   0.599   0.393  1.00  0.00     0.011 C 
HETATM    6  C6  UNL     1       1.590   1.728   0.755  1.00  0.00     0.025 C 
HETATM    7  C7  UNL     1       0.628   1.996  -0.382  1.00  0.00    -0.017 C 
HETATM    8  C8  UNL     1       1.003   2.868  -1.335  1.00  0.00    -0.007 C 
HETATM    9  C9  UNL     1       2.639  -1.818  -0.395  1.00  0.00     0.043 C 
HETATM   10  C10 UNL     1       1.641  -2.865  -0.136  1.00  0.00     0.292 C 
HETATM   11  O1  UNL     1       0.428  -2.367   0.209  1.00  0.00    -0.301 OA
HETATM   12  O2  UNL     1       1.868  -4.068  -0.228  1.00  0.00    -0.260 OA
HETATM   13  C11 UNL     1       3.946  -2.020  -0.628  1.00  0.00     0.001 C 
HETATM   14  C12 UNL     1      -2.028  -0.662   0.334  1.00  0.00     0.123 A 
HETATM   15  C13 UNL     1      -2.580   0.488   0.984  1.00  0.00     0.143 A 
HETATM   16  C14 UNL     1      -1.634   1.654   0.743  1.00  0.00     0.067 C 
HETATM   17  O3  UNL     1      -3.308   0.155  -0.172  1.00  0.00    -0.356 OA
HETATM   18  C15 UNL     1      -2.427  -2.069   0.725  1.00  0.00     0.032 C 
HETATM   19  O4  UNL     1      -1.356   1.610  -1.619  1.00  0.00    -0.222 OA
ENDROOT
TORSDOF 0
