REMARK  8 active torsions:
REMARK  status: ('A' for Active; 'I' for Inactive)
REMARK    1  A    between atoms: C3_3  and  C8_9 
REMARK    2  A    between atoms: C8_9  and  C9_10 
REMARK    3  A    between atoms: C8_9  and  C15_18 
REMARK    4  A    between atoms: C9_10  and  O2_11 
REMARK    5  A    between atoms: O2_11  and  C10_12 
REMARK    6  A    between atoms: C10_12  and  C11_13 
REMARK    7  A    between atoms: C15_18  and  O4_19 
REMARK    8  A    between atoms: O4_19  and  C16_20 
ROOT
HETATM    1  C8  UNL     1       0.834  -1.745   0.085  1.00  0.00     0.203 C 
HETATM    2  O6  UNL     1       0.195  -2.356   1.192  1.00  0.00    -0.216 OA
ENDROOT
BRANCH   1   3
HETATM    3  C3  UNL     1       0.134  -0.431  -0.276  1.00  0.00     0.035 A 
HETATM    4  C2  UNL     1       0.862   0.652  -0.791  1.00  0.00    -0.000 A 
HETATM    5  C1  UNL     1       0.261   1.863  -1.132  1.00  0.00    -0.004 A 
HETATM    6  C6  UNL     1      -1.118   2.025  -0.996  1.00  0.00    -0.020 A 
HETATM    7  C5  UNL     1      -1.851   0.932  -0.529  1.00  0.00     0.023 A 
HETATM    8  C7  UNL     1      -1.801   3.320  -1.355  1.00  0.00     0.031 C 
HETATM    9  C4  UNL     1      -1.262  -0.287  -0.174  1.00  0.00     0.129 A 
HETATM   10  O1  UNL     1      -2.070  -1.298   0.243  1.00  0.00    -0.190 OA
ENDBRANCH   1   3
BRANCH   1  11
HETATM   11  C9  UNL     1       2.290  -1.560   0.526  1.00  0.00     0.189 C 
BRANCH  11  12
HETATM   12  O2  UNL     1       2.326  -0.579   1.530  1.00  0.00    -0.296 OA
BRANCH  12  13
HETATM   13  C10 UNL     1       3.542  -0.126   1.953  1.00  0.00     0.291 C 
HETATM   14  O3  UNL     1       4.556  -0.760   1.675  1.00  0.00    -0.260 OA
BRANCH  13  15
HETATM   15  C11 UNL     1       3.674   1.265   2.478  1.00  0.00     0.037 C 
HETATM   16  C12 UNL     1       4.681   1.628   3.302  1.00  0.00    -0.025 C 
HETATM   17  C13 UNL     1       5.766   0.755   3.876  1.00  0.00     0.030 C 
HETATM   18  C14 UNL     1       2.624   2.263   2.045  1.00  0.00     0.036 C 
ENDBRANCH  13  15
ENDBRANCH  12  13
ENDBRANCH  11  12
ENDBRANCH   1  11
BRANCH   1  19
HETATM   19  C15 UNL     1       0.723  -2.708  -1.099  1.00  0.00     0.189 C 
BRANCH  19  20
HETATM   20  O4  UNL     1       1.100  -2.049  -2.280  1.00  0.00    -0.299 OA
BRANCH  20  21
HETATM   21  C16 UNL     1       0.924  -2.723  -3.447  1.00  0.00     0.273 C 
HETATM   22  C17 UNL     1       1.179  -1.809  -4.629  1.00  0.00     0.106 C 
HETATM   23  O5  UNL     1       0.570  -3.877  -3.533  1.00  0.00    -0.264 OA
ENDBRANCH  20  21
ENDBRANCH  19  20
ENDBRANCH   1  19
TORSDOF 8
