REMARK  1 active torsions:
REMARK  status: ('A' for Active; 'I' for Inactive)
REMARK    1  A    between atoms: C2_2  and  O3_19 
ROOT
HETATM    1  C1  UNL     1      -1.011   1.157   0.089  1.00  0.00     0.026 A 
HETATM    2  C2  UNL     1      -1.042  -0.256   0.021  1.00  0.00     0.121 A 
HETATM    3  C3  UNL     1       0.179  -0.957  -0.017  1.00  0.00     0.169 A 
HETATM    4  C4  UNL     1       1.390  -0.223  -0.004  1.00  0.00     0.094 A 
HETATM    5  C5  UNL     1       1.356   1.185   0.057  1.00  0.00     0.020 A 
HETATM    6  C6  UNL     1       0.157   1.900   0.109  1.00  0.00     0.004 A 
HETATM    7  C7  UNL     1       2.701   1.708   0.053  1.00  0.00     0.021 A 
HETATM    8  C8  UNL     1       3.532   0.586  -0.008  1.00  0.00     0.085 A 
HETATM    9  N1  UNL     1       2.783  -0.604  -0.036  1.00  0.00    -0.271 N 
HETATM   10  C9  UNL     1       3.512  -1.782  -0.082  1.00  0.00     0.265 A 
HETATM   11  C10 UNL     1       4.997  -1.719  -0.126  1.00  0.00     0.063 A 
HETATM   12  C11 UNL     1       5.668  -0.539  -0.104  1.00  0.00     0.025 A 
HETATM   13  C12 UNL     1       4.925   0.710  -0.035  1.00  0.00     0.098 A 
HETATM   14  N2  UNL     1       5.484   1.933  -0.001  1.00  0.00    -0.243 NA
HETATM   15  C13 UNL     1       4.679   3.008   0.059  1.00  0.00     0.099 A 
HETATM   16  C14 UNL     1       3.277   2.976   0.090  1.00  0.00     0.022 A 
HETATM   17  O1  UNL     1       2.991  -2.897  -0.083  1.00  0.00    -0.267 OA
HETATM   18  O2  UNL     1       0.200  -2.310  -0.100  1.00  0.00    -0.186 OA
ENDROOT
BRANCH   2  19
HETATM   19  O3  UNL     1      -2.307  -0.802  -0.001  1.00  0.00    -0.326 OA
HETATM   20  C15 UNL     1      -2.508  -2.192  -0.064  1.00  0.00     0.181 C 
ENDBRANCH   2  19
TORSDOF 1
