REMARK  3 active torsions:
REMARK  status: ('A' for Active; 'I' for Inactive)
REMARK    1  A    between atoms: C4_4  and  O3_9 
REMARK    2  A    between atoms: C5_6  and  C6_7 
REMARK    3  A    between atoms: O3_9  and  C7_10 
ROOT
HETATM    1  C7  UNL     1       1.800  -0.196   1.323  1.00  0.00     0.122 A 
HETATM    2  C8  UNL     1       2.547  -0.157   2.444  1.00  0.00     0.054 A 
HETATM    3  C9  UNL     1       3.466   0.780   2.709  1.00  0.00     0.133 A 
HETATM    4  C10 UNL     1       3.628   1.742   1.792  1.00  0.00     0.033 A 
HETATM    5  C11 UNL     1       2.901   1.758   0.662  1.00  0.00     0.066 A 
HETATM    6  C12 UNL     1       1.982   0.795   0.411  1.00  0.00     0.125 A 
HETATM    7  O4  UNL     1       1.257   0.810  -0.748  1.00  0.00    -0.309 OA
HETATM    8  C13 UNL     1       1.463   1.846  -1.599  1.00  0.00     0.081 A 
HETATM    9  C14 UNL     1       2.367   2.803  -1.355  1.00  0.00     0.062 A 
HETATM   10  C15 UNL     1       3.111   2.775  -0.223  1.00  0.00     0.199 A 
HETATM   11  O5  UNL     1       3.919   3.660  -0.042  1.00  0.00    -0.286 OA
HETATM   12  C16 UNL     1       0.611   1.862  -2.845  1.00  0.00     0.058 C 
HETATM   13  O6  UNL     1       4.189   0.752   3.861  1.00  0.00    -0.190 OA
ENDROOT
BRANCH   1  14
HETATM   14  O3  UNL     1       0.907  -1.248   1.262  1.00  0.00    -0.302 OA
BRANCH  14  15
HETATM   15  C4  UNL     1      -0.102  -1.340   0.289  1.00  0.00     0.274 C 
HETATM   16  C3  UNL     1      -0.864  -2.627   0.497  1.00  0.00     0.241 C 
HETATM   17  C2  UNL     1      -1.983  -2.706  -0.521  1.00  0.00     0.220 C 
HETATM   18  O7  UNL     1       0.000  -3.721   0.319  1.00  0.00    -0.215 OA
HETATM   19  C1  UNL     1      -2.838  -1.449  -0.460  1.00  0.00     0.215 C 
HETATM   20  O8  UNL     1      -2.748  -3.853  -0.237  1.00  0.00    -0.218 OA
HETATM   21  C5  UNL     1      -1.977  -0.187  -0.461  1.00  0.00     0.184 C 
HETATM   22  O9  UNL     1      -3.682  -1.424  -1.589  1.00  0.00    -0.218 OA
HETATM   23  O1  UNL     1      -0.983  -0.267   0.524  1.00  0.00    -0.326 OA
BRANCH  21  24
HETATM   24  C6  UNL     1      -2.778   1.080  -0.194  1.00  0.00     0.214 C 
HETATM   25  O2  UNL     1      -3.820   1.203  -1.138  1.00  0.00    -0.218 OA
ENDBRANCH  21  24
ENDBRANCH  14  15
ENDBRANCH   1  14
TORSDOF 3
