REMARK  5 active torsions:
REMARK  status: ('A' for Active; 'I' for Inactive)
REMARK    1  A    between atoms: C5_5  and  C7_7 
REMARK    2  A    between atoms: C7_7  and  O1_8 
REMARK    3  A    between atoms: C7_7  and  C10_12 
REMARK    4  A    between atoms: O1_8  and  C8_9 
REMARK    5  A    between atoms: C10_12  and  C11_13 
ROOT
HETATM    1  C7  UNL     1       2.304  -0.676   0.287  1.00  0.00     0.179 C 
ENDROOT
BRANCH   1   2
HETATM    2  C5  UNL     1       3.802  -0.926   0.208  1.00  0.00     0.008 A 
HETATM    3  C4  UNL     1       4.333  -2.206   0.406  1.00  0.00    -0.002 A 
HETATM    4  C3  UNL     1       5.711  -2.429   0.345  1.00  0.00    -0.000 A 
HETATM    5  C2  UNL     1       6.580  -1.371   0.080  1.00  0.00    -0.000 A 
HETATM    6  C1  UNL     1       6.065  -0.090  -0.125  1.00  0.00    -0.000 A 
HETATM    7  C6  UNL     1       4.687   0.126  -0.058  1.00  0.00    -0.002 A 
ENDBRANCH   1   2
BRANCH   1   8
HETATM    8  O1  UNL     1       2.030   0.311   1.251  1.00  0.00    -0.297 OA
BRANCH   8   9
HETATM    9  C8  UNL     1       2.245  -0.007   2.555  1.00  0.00     0.273 C 
HETATM   10  C9  UNL     1       1.886   1.167   3.443  1.00  0.00     0.106 C 
HETATM   11  O2  UNL     1       2.646  -1.076   2.956  1.00  0.00    -0.264 OA
ENDBRANCH   8   9
ENDBRANCH   1   8
BRANCH   1  12
HETATM   12  C10 UNL     1       1.751  -0.243  -1.071  1.00  0.00     0.214 C 
HETATM   13  O6  UNL     1       2.132  -1.217  -2.019  1.00  0.00    -0.218 OA
BRANCH  12  14
HETATM   14  C11 UNL     1       0.229  -0.098  -1.185  1.00  0.00     0.192 C 
HETATM   15  C12 UNL     1      -0.390   1.031  -0.364  1.00  0.00     0.205 C 
HETATM   16  O3  UNL     1       0.369   2.213  -0.528  1.00  0.00    -0.216 OA
HETATM   17  C13 UNL     1      -1.807   1.336  -0.752  1.00  0.00     0.014 C 
HETATM   18  C14 UNL     1      -2.207   1.139  -2.017  1.00  0.00     0.066 C 
HETATM   19  C15 UNL     1      -1.225   0.558  -2.963  1.00  0.00     0.296 C 
HETATM   20  O4  UNL     1      -0.053  -0.002  -2.557  1.00  0.00    -0.295 OA
HETATM   21  O5  UNL     1      -1.516   0.570  -4.156  1.00  0.00    -0.259 OA
ENDBRANCH  12  14
ENDBRANCH   1  12
TORSDOF 5
