REMARK  7 active torsions:
REMARK  status: ('A' for Active; 'I' for Inactive)
REMARK    1  A    between atoms: C3_3  and  O4_11 
REMARK    2  A    between atoms: C5_6  and  C6_7 
REMARK    3  A    between atoms: C6_7  and  O3_9 
REMARK    4  A    between atoms: O4_11  and  C8_12 
REMARK    5  A    between atoms: C9_14  and  C13_21 
REMARK    6  A    between atoms: C14_23  and  C17_26 
REMARK    7  A    between atoms: C14_23  and  O11_28 
ROOT
HETATM    1  C1  UNL     1      -0.635   2.864   0.480  1.00  0.00     0.059 C 
HETATM    2  C2  UNL     1      -0.903   1.350   0.300  1.00  0.00     0.097 C 
HETATM    3  C3  UNL     1       0.366   0.600  -0.065  1.00  0.00     0.245 C 
HETATM    4  O1  UNL     1       1.460   0.955   0.742  1.00  0.00    -0.304 OA
HETATM    5  C4  UNL     1       1.711   2.283   0.912  1.00  0.00     0.120 C 
HETATM    6  C5  UNL     1       0.803   3.262   0.763  1.00  0.00     0.069 C 
HETATM    7  C14 UNL     1      -2.042   1.229  -0.763  1.00  0.00     0.147 C 
HETATM    8  C15 UNL     1      -2.050   2.599  -1.390  1.00  0.00    -0.001 C 
HETATM    9  C16 UNL     1      -1.243   3.456  -0.762  1.00  0.00    -0.024 C 
ENDROOT
BRANCH   3  10
HETATM   10  O4  UNL     1       0.202  -0.781   0.218  1.00  0.00    -0.304 OA
BRANCH  10  11
HETATM   11  C8  UNL     1       1.164  -1.621  -0.384  1.00  0.00     0.272 C 
HETATM   12  O5  UNL     1       0.510  -2.407  -1.357  1.00  0.00    -0.326 OA
HETATM   13  C9  UNL     1      -0.231  -3.503  -0.890  1.00  0.00     0.184 C 
HETATM   14  C10 UNL     1       0.588  -4.390   0.036  1.00  0.00     0.215 C 
HETATM   15  C11 UNL     1       1.217  -3.623   1.182  1.00  0.00     0.220 C 
HETATM   16  O8  UNL     1       1.619  -5.002  -0.710  1.00  0.00    -0.218 OA
HETATM   17  C12 UNL     1       1.956  -2.420   0.631  1.00  0.00     0.241 C 
HETATM   18  O7  UNL     1       0.236  -3.210   2.100  1.00  0.00    -0.218 OA
HETATM   19  O6  UNL     1       3.133  -2.880   0.004  1.00  0.00    -0.215 OA
BRANCH  13  20
HETATM   20  C13 UNL     1      -1.596  -3.130  -0.322  1.00  0.00     0.214 C 
HETATM   21  O9  UNL     1      -2.369  -2.456  -1.295  1.00  0.00    -0.218 OA
ENDBRANCH  13  20
ENDBRANCH  10  11
ENDBRANCH   3  10
BRANCH   7  22
HETATM   22  C17 UNL     1      -3.388   0.977  -0.088  1.00  0.00     0.214 C 
HETATM   23  O10 UNL     1      -3.375  -0.297   0.526  1.00  0.00    -0.218 OA
ENDBRANCH   7  22
BRANCH   7  24
HETATM   24  O11 UNL     1      -1.827   0.173  -1.669  1.00  0.00    -0.349 OA
HETATM   25  C18 UNL     1      -1.402   0.521  -2.968  1.00  0.00     0.175 C 
ENDBRANCH   7  24
BRANCH   6  26
HETATM   26  C6  UNL     1       1.084   4.593   0.933  1.00  0.00     0.294 C 
HETATM   27  O2  UNL     1       0.104   5.313   0.914  1.00  0.00    -0.259 OA
BRANCH  26  28
HETATM   28  O3  UNL     1       2.269   5.261   1.131  1.00  0.00    -0.296 OA
HETATM   29  C7  UNL     1       3.546   4.693   1.000  1.00  0.00     0.185 C 
ENDBRANCH  26  28
ENDBRANCH   6  26
TORSDOF 7
