REMARK  6 active torsions:
REMARK  status: ('A' for Active; 'I' for Inactive)
REMARK    1  A    between atoms: C3_3  and  O6_20 
REMARK    2  A    between atoms: C12_15  and  O4_17 
REMARK    3  A    between atoms: O6_20  and  C15_21 
REMARK    4  A    between atoms: C19_25  and  C20_27 
REMARK    5  A    between atoms: C20_27  and  O8_28 
REMARK    6  A    between atoms: O8_28  and  C21_29 
ROOT
HETATM    1  C15 UNL     1       1.427  -3.545   0.737  1.00  0.00     0.274 C 
HETATM    2  C16 UNL     1       0.790  -4.536   1.683  1.00  0.00     0.241 C 
HETATM    3  C17 UNL     1      -0.671  -4.672   1.316  1.00  0.00     0.220 C 
HETATM    4  C18 UNL     1      -1.315  -3.300   1.365  1.00  0.00     0.215 C 
HETATM    5  C19 UNL     1      -0.547  -2.312   0.492  1.00  0.00     0.180 C 
HETATM    6  O7  UNL     1       0.802  -2.287   0.886  1.00  0.00    -0.326 OA
HETATM    7  O13 UNL     1      -2.643  -3.437   0.922  1.00  0.00    -0.218 OA
HETATM    8  O14 UNL     1      -1.313  -5.527   2.226  1.00  0.00    -0.218 OA
HETATM    9  O15 UNL     1       1.419  -5.785   1.551  1.00  0.00    -0.215 OA
ENDROOT
BRANCH   1  10
HETATM   10  O6  UNL     1       2.811  -3.456   1.015  1.00  0.00    -0.303 OA
BRANCH  10  11
HETATM   11  C3  UNL     1       3.263  -2.311   1.624  1.00  0.00     0.102 A 
HETATM   12  C2  UNL     1       3.542  -2.374   2.938  1.00  0.00     0.027 A 
HETATM   13  C1  UNL     1       4.009  -1.320   3.615  1.00  0.00     0.032 A 
HETATM   14  C6  UNL     1       4.245  -0.165   2.982  1.00  0.00     0.154 A 
HETATM   15  C5  UNL     1       4.021  -0.085   1.654  1.00  0.00     0.130 A 
HETATM   16  O1  UNL     1       4.726   0.904   3.675  1.00  0.00    -0.188 OA
HETATM   17  C4  UNL     1       3.553  -1.154   0.975  1.00  0.00     0.086 A 
HETATM   18  O2  UNL     1       4.314   1.099   1.048  1.00  0.00    -0.305 OA
HETATM   19  C9  UNL     1       3.330  -1.030  -0.368  1.00  0.00     0.203 C 
HETATM   20  C8  UNL     1       3.450   0.192  -0.964  1.00  0.00     0.087 A 
HETATM   21  O3  UNL     1       2.959  -1.974  -1.030  1.00  0.00    -0.286 OA
HETATM   22  C7  UNL     1       3.910   1.231  -0.242  1.00  0.00     0.107 A 
HETATM   23  C10 UNL     1       3.068   0.384  -2.246  1.00  0.00     0.138 A 
HETATM   24  C13 UNL     1       3.952   2.452  -0.807  1.00  0.00     0.049 A 
HETATM   25  C12 UNL     1       3.540   2.703  -2.061  1.00  0.00     0.098 A 
HETATM   26  C11 UNL     1       3.116   1.629  -2.746  1.00  0.00     0.052 A 
HETATM   27  O5  UNL     1       2.577  -0.600  -3.053  1.00  0.00    -0.190 OA
BRANCH  25  28
HETATM   28  O4  UNL     1       3.517   3.932  -2.672  1.00  0.00    -0.328 OA
HETATM   29  C14 UNL     1       3.995   5.051  -1.965  1.00  0.00     0.181 C 
ENDBRANCH  25  28
ENDBRANCH  10  11
ENDBRANCH   1  10
BRANCH   5  30
HETATM   30  C20 UNL     1      -1.121  -0.900   0.595  1.00  0.00     0.177 C 
BRANCH  30  31
HETATM   31  O8  UNL     1      -0.478  -0.068  -0.340  1.00  0.00    -0.326 OA
BRANCH  31  32
HETATM   32  C21 UNL     1      -1.002   1.244  -0.390  1.00  0.00     0.270 C 
HETATM   33  C22 UNL     1       0.005   2.095  -1.124  1.00  0.00     0.241 C 
HETATM   34  C23 UNL     1      -0.519   3.484  -1.394  1.00  0.00     0.220 C 
HETATM   35  O12 UNL     1       1.157   2.228  -0.340  1.00  0.00    -0.215 OA
HETATM   36  C24 UNL     1      -1.846   3.357  -2.109  1.00  0.00     0.215 C 
HETATM   37  O11 UNL     1       0.410   4.164  -2.204  1.00  0.00    -0.218 OA
HETATM   38  C25 UNL     1      -2.777   2.448  -1.321  1.00  0.00     0.181 C 
HETATM   39  O10 UNL     1      -2.403   4.643  -2.235  1.00  0.00    -0.218 OA
HETATM   40  O9  UNL     1      -2.198   1.177  -1.137  1.00  0.00    -0.326 OA
ENDBRANCH  31  32
ENDBRANCH  30  31
ENDBRANCH   5  30
TORSDOF 6
