REMARK  9 active torsions:
REMARK  status: ('A' for Active; 'I' for Inactive)
REMARK    1  A    between atoms: C6_8  and  C11_14 
REMARK    2  A    between atoms: C7_9  and  O3_10 
REMARK    3  A    between atoms: C11_14  and  C12_15 
REMARK    4  A    between atoms: C12_15  and  C13_16 
REMARK    5  A    between atoms: C13_16  and  C15_18 
REMARK    6  A    between atoms: C15_18  and  O4_19 
REMARK    7  A    between atoms: O4_19  and  C16_20 
REMARK    8  A    between atoms: C16_20  and  C17_21 
REMARK    9  A    between atoms: C17_21  and  C18_22 
ROOT
HETATM    1  C11 UNL     1       2.002   0.320  -0.113  1.00  0.00     0.212 C 
HETATM    2  O7  UNL     1       1.260  -0.199   0.978  1.00  0.00    -0.215 OA
ENDROOT
BRANCH   1   3
HETATM    3  C6  UNL     1       1.983   1.849   0.025  1.00  0.00     0.056 A 
HETATM    4  C2  UNL     1       3.094   2.598   0.236  1.00  0.00     0.104 A 
HETATM    5  C1  UNL     1       2.971   3.939   0.331  1.00  0.00     0.023 A 
HETATM    6  O1  UNL     1       4.326   2.015   0.352  1.00  0.00    -0.273 OA
HETATM    7  C5  UNL     1       4.056   4.709   0.531  1.00  0.00     0.007 A 
HETATM    8  C10 UNL     1       1.766   4.517   0.227  1.00  0.00     0.004 A 
HETATM    9  C4  UNL     1       5.276   4.168   0.641  1.00  0.00     0.069 A 
HETATM   10  C3  UNL     1       5.404   2.822   0.550  1.00  0.00     0.300 A 
HETATM   11  O2  UNL     1       6.511   2.334   0.650  1.00  0.00    -0.259 OA
HETATM   12  C9  UNL     1       0.678   3.762   0.038  1.00  0.00     0.024 A 
HETATM   13  C7  UNL     1       0.754   2.422  -0.060  1.00  0.00     0.095 A 
BRANCH  13  14
HETATM   14  O3  UNL     1      -0.351   1.623  -0.251  1.00  0.00    -0.328 OA
HETATM   15  C8  UNL     1      -1.620   2.208  -0.423  1.00  0.00     0.181 C 
ENDBRANCH  13  14
ENDBRANCH   1   3
BRANCH   1  16
HETATM   16  C12 UNL     1       3.288  -0.490  -0.206  1.00  0.00     0.207 C 
HETATM   17  O6  UNL     1       4.010  -0.127  -1.369  1.00  0.00    -0.216 OA
BRANCH  16  18
HETATM   18  C13 UNL     1       3.143  -2.000  -0.252  1.00  0.00     0.018 C 
HETATM   19  C14 UNL     1       2.102  -2.632  -0.817  1.00  0.00    -0.004 C 
BRANCH  18  20
HETATM   20  C15 UNL     1       4.297  -2.782   0.340  1.00  0.00     0.177 C 
BRANCH  20  21
HETATM   21  O4  UNL     1       5.525  -2.293  -0.160  1.00  0.00    -0.297 OA
BRANCH  21  22
HETATM   22  C16 UNL     1       6.652  -2.845   0.370  1.00  0.00     0.272 C 
HETATM   23  O5  UNL     1       6.654  -3.753   1.170  1.00  0.00    -0.264 OA
BRANCH  22  24
HETATM   24  C17 UNL     1       7.887  -2.124  -0.145  1.00  0.00     0.096 C 
BRANCH  24  25
HETATM   25  C18 UNL     1       9.221  -2.747   0.313  1.00  0.00     0.010 C 
HETATM   26  C19 UNL     1      10.393  -1.794   0.022  1.00  0.00     0.001 C 
HETATM   27  C20 UNL     1       9.475  -4.107  -0.359  1.00  0.00     0.001 C 
ENDBRANCH  24  25
ENDBRANCH  22  24
ENDBRANCH  21  22
ENDBRANCH  20  21
ENDBRANCH  18  20
ENDBRANCH  16  18
ENDBRANCH   1  16
TORSDOF 9
