REMARK  5 active torsions:
REMARK  status: ('A' for Active; 'I' for Inactive)
REMARK    1  A    between atoms: C6_6  and  C7_7 
REMARK    2  A    between atoms: C7_7  and  C8_8 
REMARK    3  A    between atoms: C12_13  and  C15_17 
REMARK    4  A    between atoms: C17_19  and  O5_26 
REMARK    5  A    between atoms: C19_21  and  O3_23 
ROOT
HETATM    1  C1  UNL     1      -2.980   2.766   0.575  1.00  0.00     0.131 A 
HETATM    2  C2  UNL     1      -2.507   4.074   0.468  1.00  0.00     0.055 A 
HETATM    3  C3  UNL     1      -1.194   4.386   0.113  1.00  0.00     0.138 A 
HETATM    4  C4  UNL     1      -0.329   3.307  -0.135  1.00  0.00     0.087 A 
HETATM    5  C5  UNL     1      -0.757   1.970  -0.042  1.00  0.00     0.103 A 
HETATM    6  C6  UNL     1      -2.095   1.712   0.302  1.00  0.00     0.030 A 
HETATM    7  O1  UNL     1       0.069   0.915  -0.305  1.00  0.00    -0.307 OA
HETATM    8  C12 UNL     1       1.423   1.094  -0.316  1.00  0.00     0.103 C 
HETATM    9  C13 UNL     1       1.958   2.332  -0.436  1.00  0.00     0.067 C 
HETATM   10  C14 UNL     1       1.099   3.537  -0.471  1.00  0.00     0.202 C 
HETATM   11  O2  UNL     1       1.593   4.640  -0.681  1.00  0.00    -0.286 OA
HETATM   12  O6  UNL     1      -0.819   5.694   0.053  1.00  0.00    -0.190 OA
HETATM   13  O7  UNL     1      -4.271   2.536   0.935  1.00  0.00    -0.190 OA
ENDROOT
BRANCH   8  14
HETATM   14  C15 UNL     1       2.286  -0.109  -0.249  1.00  0.00     0.027 A 
HETATM   15  C16 UNL     1       1.678  -1.374  -0.274  1.00  0.00     0.028 A 
HETATM   16  C17 UNL     1       2.375  -2.585  -0.209  1.00  0.00     0.121 A 
HETATM   17  C18 UNL     1       3.776  -2.511  -0.073  1.00  0.00     0.175 A 
HETATM   18  C19 UNL     1       4.442  -1.272  -0.047  1.00  0.00     0.121 A 
HETATM   19  O4  UNL     1       4.551  -3.626   0.012  1.00  0.00    -0.186 OA
HETATM   20  C20 UNL     1       3.680  -0.097  -0.134  1.00  0.00     0.028 A 
BRANCH  16  21
HETATM   21  O5  UNL     1       1.608  -3.727  -0.219  1.00  0.00    -0.326 OA
HETATM   22  C22 UNL     1       2.163  -4.969   0.137  1.00  0.00     0.181 C 
ENDBRANCH  16  21
BRANCH  18  23
HETATM   23  O3  UNL     1       5.811  -1.294   0.070  1.00  0.00    -0.326 OA
HETATM   24  C21 UNL     1       6.523  -0.079   0.075  1.00  0.00     0.181 C 
ENDBRANCH  18  23
ENDBRANCH   8  14
BRANCH   6  25
HETATM   25  C7  UNL     1      -2.596   0.281   0.402  1.00  0.00     0.056 C 
BRANCH  25  26
HETATM   26  C8  UNL     1      -3.776   0.027  -0.500  1.00  0.00    -0.030 C 
HETATM   27  C9  UNL     1      -4.694  -0.942  -0.336  1.00  0.00    -0.048 C 
HETATM   28  C10 UNL     1      -5.858  -1.090  -1.289  1.00  0.00     0.026 C 
HETATM   29  C11 UNL     1      -4.659  -1.967   0.772  1.00  0.00     0.026 C 
ENDBRANCH  25  26
ENDBRANCH   6  25
TORSDOF 5
