REMARK  9 active torsions:
REMARK  status: ('A' for Active; 'I' for Inactive)
REMARK    1  A    between atoms: C4_5  and  O1_6 
REMARK    2  A    between atoms: O1_6  and  C5_7 
REMARK    3  A    between atoms: C5_7  and  C6_8 
REMARK    4  A    between atoms: C10_13  and  C13_16 
REMARK    5  A    between atoms: C13_16  and  O3_17 
REMARK    6  A    between atoms: O3_17  and  C14_18 
REMARK    7  A    between atoms: C14_18  and  C15_20 
REMARK    8  A    between atoms: C15_20  and  C16_21 
REMARK    9  A    between atoms: C15_20  and  C18_25 
ROOT
HETATM    1  C1  UNL     1       3.400  -2.936   0.063  1.00  0.00     0.068 C 
HETATM    2  C2  UNL     1       2.961  -4.033   1.020  1.00  0.00     0.254 C 
HETATM    3  N1  UNL     1       1.662  -3.623   1.555  1.00  0.00     0.146 N 
HETATM    4  C3  UNL     1       1.646  -2.146   1.496  1.00  0.00     0.268 A 
HETATM    5  C4  UNL     1       2.988  -1.717   0.881  1.00  0.00     0.162 C 
HETATM    6  C10 UNL     1       0.418  -1.818   0.693  1.00  0.00     0.017 A 
HETATM    7  C11 UNL     1      -0.225  -2.918   0.299  1.00  0.00     0.005 A 
HETATM    8  C12 UNL     1       0.500  -4.133   0.793  1.00  0.00     0.276 A 
ENDROOT
BRANCH   6   9
HETATM    9  C13 UNL     1      -0.025  -0.410   0.389  1.00  0.00     0.176 C 
BRANCH   9  10
HETATM   10  O3  UNL     1      -1.436  -0.316   0.525  1.00  0.00    -0.295 OA
BRANCH  10  11
HETATM   11  C14 UNL     1      -1.889   0.906   0.268  1.00  0.00     0.302 C 
HETATM   12  O4  UNL     1      -1.182   1.834  -0.047  1.00  0.00    -0.261 OA
BRANCH  11  13
HETATM   13  C15 UNL     1      -3.379   1.076   0.397  1.00  0.00     0.231 C 
HETATM   14  O6  UNL     1      -4.000  -0.189   0.365  1.00  0.00    -0.213 OA
BRANCH  13  15
HETATM   15  C16 UNL     1      -3.608   1.688   1.779  1.00  0.00     0.189 C 
HETATM   16  C17 UNL     1      -2.803   0.986   2.875  1.00  0.00     0.039 C 
HETATM   17  O5  UNL     1      -4.977   1.566   2.094  1.00  0.00    -0.220 OA
ENDBRANCH  13  15
BRANCH  13  18
HETATM   18  C18 UNL     1      -3.967   1.928  -0.728  1.00  0.00     0.040 C 
HETATM   19  C19 UNL     1      -3.541   1.445  -2.117  1.00  0.00     0.003 C 
HETATM   20  C20 UNL     1      -5.481   2.104  -0.605  1.00  0.00     0.003 C 
ENDBRANCH  13  18
ENDBRANCH  11  13
ENDBRANCH  10  11
ENDBRANCH   9  10
ENDBRANCH   6   9
BRANCH   5  21
HETATM   21  O1  UNL     1       2.869  -0.562   0.061  1.00  0.00    -0.299 OA
BRANCH  21  22
HETATM   22  C5  UNL     1       4.049  -0.109  -0.352  1.00  0.00     0.291 C 
HETATM   23  O2  UNL     1       5.107  -0.584  -0.010  1.00  0.00    -0.260 OA
BRANCH  22  24
HETATM   24  C6  UNL     1       4.010   1.031  -1.271  1.00  0.00     0.037 C 
HETATM   25  C7  UNL     1       2.975   1.887  -1.332  1.00  0.00    -0.025 C 
HETATM   26  C8  UNL     1       3.039   3.024  -2.316  1.00  0.00     0.030 C 
HETATM   27  C9  UNL     1       5.180   1.256  -2.191  1.00  0.00     0.036 C 
ENDBRANCH  22  24
ENDBRANCH  21  22
ENDBRANCH   5  21
TORSDOF 9
