REMARK  2 active torsions:
REMARK  status: ('A' for Active; 'I' for Inactive)
REMARK    1  A    between atoms: C12_13  and  C34_42 
REMARK    2  A    between atoms: C16_17  and  C33_38 
ROOT
HETATM    1  C1  UNL     1       0.191   0.022   5.585  1.00  0.00     0.000 C 
HETATM    2  C2  UNL     1      -0.715   0.871   6.492  1.00  0.00     0.000 C 
HETATM    3  C3  UNL     1      -1.327   2.042   5.702  1.00  0.00     0.000 C 
HETATM    4  C4  UNL     1      -2.485   1.581   4.797  1.00  0.00     0.000 C 
HETATM    5  C5  UNL     1      -2.531   2.272   3.426  1.00  0.00     0.000 C 
HETATM    6  C6  UNL     1      -1.396   1.854   2.467  1.00  0.00     0.000 C 
HETATM    7  C7  UNL     1      -1.771   2.201   1.018  1.00  0.00     0.005 C 
HETATM    8  C8  UNL     1      -0.716   1.855  -0.055  1.00  0.00     0.026 C 
HETATM    9  C9  UNL     1      -1.448   1.762  -1.370  1.00  0.00    -0.023 C 
HETATM   10  C10 UNL     1      -1.696   0.888  -2.391  1.00  0.00     0.051 C 
HETATM   11  C11 UNL     1      -1.329  -0.888  -3.178  1.00  0.00     0.274 A 
HETATM   12  O1  UNL     1      -2.474  -1.677  -3.414  1.00  0.00    -0.312 OA
HETATM   13  C12 UNL     1      -2.934  -0.398  -3.330  1.00  0.00     0.143 C 
HETATM   14  C13 UNL     1      -1.475   0.360  -4.227  1.00  0.00     0.198 A 
HETATM   15  C14 UNL     1       0.088   0.567  -3.325  1.00  0.00     0.090 C 
HETATM   16  C15 UNL     1       1.167   0.690  -4.444  1.00  0.00     0.150 A 
HETATM   17  C16 UNL     1       2.483   0.128  -4.356  1.00  0.00     0.179 A 
HETATM   18  C17 UNL     1       2.815  -0.932  -3.328  1.00  0.00     0.216 C 
HETATM   19  C18 UNL     1       2.688  -0.371  -1.920  1.00  0.00     0.209 C 
HETATM   20  C19 UNL     1       3.844  -0.691  -0.990  1.00  0.00     0.180 C 
HETATM   21  C20 UNL     1       3.326  -0.798   0.424  1.00  0.00     0.060 C 
HETATM   22  C21 UNL     1       1.789  -0.615   0.310  1.00  0.00     0.012 C 
HETATM   23  C22 UNL     1       1.088  -1.511   1.356  1.00  0.00     0.001 C 
HETATM   24  C23 UNL     1       1.589  -1.381   2.806  1.00  0.00     0.000 C 
HETATM   25  C24 UNL     1       0.906  -2.370   3.770  1.00  0.00     0.000 C 
HETATM   26  C25 UNL     1       1.385  -2.222   5.229  1.00  0.00     0.000 C 
HETATM   27  C26 UNL     1       0.460  -1.384   6.131  1.00  0.00     0.000 C 
HETATM   28  C27 UNL     1       1.421  -0.875  -1.194  1.00  0.00     0.063 C 
HETATM   29  C28 UNL     1       0.045  -0.546  -1.914  1.00  0.00     0.105 C 
HETATM   30  C29 UNL     1      -1.424  -0.918  -1.006  1.00  0.00     0.028 C 
HETATM   31  C30 UNL     1      -2.943  -0.591  -1.653  1.00  0.00     0.036 C 
HETATM   32  C31 UNL     1      -1.490  -2.416  -0.569  1.00  0.00     0.003 C 
HETATM   33  O2  UNL     1      -0.205  -1.596  -2.736  1.00  0.00    -0.318 OA
HETATM   34  C32 UNL     1       4.046   0.256   1.285  1.00  0.00     0.008 C 
HETATM   35  O3  UNL     1       5.019  -0.689  -1.274  1.00  0.00    -0.293 OA
HETATM   36  O4  UNL     1       2.659   1.042  -1.949  1.00  0.00    -0.216 OA
HETATM   37  O5  UNL     1       4.086  -1.497  -3.591  1.00  0.00    -0.218 OA
HETATM   38  O7  UNL     1       1.349  -0.385  -5.340  1.00  0.00    -0.351 OA
HETATM   39  O8  UNL     1      -1.075  -0.851  -4.592  1.00  0.00    -0.308 OA
ENDROOT
BRANCH  13  40
HETATM   40  C34 UNL     1      -4.257  -0.184  -4.025  1.00  0.00    -0.017 C 
HETATM   41  C35 UNL     1      -5.359   0.466  -3.227  1.00  0.00     0.029 C 
HETATM   42  C36 UNL     1      -4.427  -0.517  -5.313  1.00  0.00    -0.007 C 
ENDBRANCH  13  40
BRANCH  17  43
HETATM   43  C33 UNL     1       3.621   0.887  -5.019  1.00  0.00     0.214 C 
HETATM   44  O6  UNL     1       4.398   1.542  -4.025  1.00  0.00    -0.218 OA
ENDBRANCH  17  43
TORSDOF 2
