REMARK  3 active torsions:
REMARK  status: ('A' for Active; 'I' for Inactive)
REMARK    1  A    between atoms: C5_5  and  C7_7 
REMARK    2  A    between atoms: C7_7  and  C8_8 
REMARK    3  A    between atoms: C8_8  and  N1_9 
ROOT
HETATM    1  C1  UNL     1      -1.987  -1.508   0.836  1.00  0.00     0.027 A 
HETATM    2  C2  UNL     1      -1.244  -2.701   0.836  1.00  0.00     0.131 A 
HETATM    3  C3  UNL     1       0.162  -2.647   0.836  1.00  0.00     0.027 A 
HETATM    4  C4  UNL     1       0.820  -1.404   0.836  1.00  0.00     0.000 A 
HETATM    5  C5  UNL     1       0.074  -0.213   0.836  1.00  0.00     0.010 A 
HETATM    6  C6  UNL     1      -1.330  -0.266   0.836  1.00  0.00     0.000 A 
HETATM    7  O2  UNL     1      -1.862  -3.865   0.836  1.00  0.00    -0.190 OA
ENDROOT
BRANCH   5   8
HETATM    8  C7  UNL     1       0.771   1.099   0.836  1.00  0.00     0.210 C 
HETATM    9  O1  UNL     1       0.377   1.840   1.969  1.00  0.00    -0.216 OA
BRANCH   8  10
HETATM   10  C8  UNL     1       0.430   1.918  -0.410  1.00  0.00     0.327 C 
BRANCH  10  11
HETATM   11  N1  UNL     1       0.879   1.228  -1.609  1.00  0.00     0.344 N 
HETATM   12  C9  UNL     1       0.529   1.990  -2.795  1.00  0.00     0.328 C 
ENDBRANCH  10  11
ENDBRANCH   8  10
ENDBRANCH   5   8
TORSDOF 3
