REMARK  3 active torsions:
REMARK  status: ('A' for Active; 'I' for Inactive)
REMARK    1  A    between atoms: C2_2  and  O3_11 
REMARK    2  A    between atoms: C4_4  and  C8_9 
REMARK    3  A    between atoms: C6_6  and  O1_7 
ROOT
HETATM    1  C1  UNL     1       0.561   0.831   0.153  1.00  0.00     0.175 A 
HETATM    2  C2  UNL     1       1.002  -0.446   0.178  1.00  0.00     0.121 A 
HETATM    3  C3  UNL     1       0.075  -1.425   0.185  1.00  0.00     0.030 A 
HETATM    4  C4  UNL     1      -1.242  -1.161   0.185  1.00  0.00     0.046 A 
HETATM    5  C5  UNL     1      -1.641   0.121   0.160  1.00  0.00     0.030 A 
HETATM    6  C6  UNL     1      -0.753   1.128   0.099  1.00  0.00     0.121 A 
HETATM    7  O4  UNL     1       1.458   1.858   0.167  1.00  0.00    -0.186 OA
ENDROOT
BRANCH   2   8
HETATM    8  O3  UNL     1       2.362  -0.653   0.202  1.00  0.00    -0.326 OA
HETATM    9  C9  UNL     1       2.859  -1.971   0.218  1.00  0.00     0.181 C 
ENDBRANCH   2   8
BRANCH   6  10
HETATM   10  O1  UNL     1      -1.168   2.436   0.125  1.00  0.00    -0.326 OA
HETATM   11  C7  UNL     1      -1.439   2.967  -1.152  1.00  0.00     0.181 C 
ENDBRANCH   6  10
BRANCH   4  12
HETATM   12  C8  UNL     1      -2.153  -2.169   0.221  1.00  0.00     0.234 C 
HETATM   13  O2  UNL     1      -3.352  -2.010   0.224  1.00  0.00    -0.283 OA
ENDBRANCH   4  12
TORSDOF 3
