REMARK  2 active torsions:
REMARK  status: ('A' for Active; 'I' for Inactive)
REMARK    1  A    between atoms: C7_7  and  C12_13 
REMARK    2  A    between atoms: C8_8  and  C11_11 
ROOT
HETATM    1  C1  UNL     1       2.492   0.848  -0.320  1.00  0.00     0.000 C 
HETATM    2  C2  UNL     1       2.477  -0.594   0.183  1.00  0.00     0.000 C 
HETATM    3  C3  UNL     1       1.273  -1.393  -0.367  1.00  0.00     0.000 C 
HETATM    4  C4  UNL     1       0.018  -0.480  -0.592  1.00  0.00     0.005 C 
HETATM    5  C5  UNL     1      -0.035   0.770   0.324  1.00  0.00     0.011 C 
HETATM    6  C6  UNL     1       1.260   1.623   0.168  1.00  0.00     0.001 C 
HETATM    7  C7  UNL     1      -1.258   1.649  -0.067  1.00  0.00     0.090 C 
HETATM    8  C8  UNL     1      -2.557   0.899  -0.320  1.00  0.00     0.023 C 
HETATM    9  C9  UNL     1      -2.561  -0.430  -0.553  1.00  0.00    -0.027 C 
HETATM   10  C10 UNL     1      -1.309  -1.271  -0.535  1.00  0.00     0.026 C 
HETATM   11  C13 UNL     1      -0.166   0.295   1.783  1.00  0.00     0.001 C 
HETATM   12  C14 UNL     1       1.662  -2.027  -1.711  1.00  0.00     0.000 C 
HETATM   13  C15 UNL     1       1.002  -2.539   0.617  1.00  0.00     0.000 C 
ENDROOT
BRANCH   7  14
HETATM   14  C12 UNL     1      -1.477   2.766   0.932  1.00  0.00     0.211 C 
HETATM   15  O2  UNL     1      -1.182   3.906   0.662  1.00  0.00    -0.288 OA
ENDBRANCH   7  14
BRANCH   8  16
HETATM   16  C11 UNL     1      -3.830   1.643  -0.324  1.00  0.00     0.230 C 
HETATM   17  O1  UNL     1      -3.832   2.850  -0.389  1.00  0.00    -0.283 OA
ENDBRANCH   8  16
TORSDOF 2
