REMARK  1 active torsions:
REMARK  status: ('A' for Active; 'I' for Inactive)
REMARK    1  A    between atoms: C16_16  and  C25_28 
ROOT
HETATM    1  C1  UNL     1      -3.781  -0.641  -2.867  1.00  0.00     0.033 C 
HETATM    2  C2  UNL     1      -4.073  -2.137  -2.869  1.00  0.00     0.152 C 
HETATM    3  C3  UNL     1      -3.303  -2.894  -1.768  1.00  0.00     0.028 C 
HETATM    4  C4  UNL     1      -3.480  -2.202  -0.372  1.00  0.00     0.002 C 
HETATM    5  C5  UNL     1      -3.476  -0.644  -0.284  1.00  0.00     0.001 C 
HETATM    6  C6  UNL     1      -4.200  -0.044  -1.524  1.00  0.00     0.003 C 
HETATM    7  C7  UNL     1      -2.011  -0.099  -0.161  1.00  0.00     0.005 C 
HETATM    8  C8  UNL     1      -1.019  -0.728   0.868  1.00  0.00     0.006 C 
HETATM    9  C9  UNL     1      -1.205  -2.264   0.893  1.00  0.00     0.000 C 
HETATM   10  C10 UNL     1      -2.643  -2.787   0.786  1.00  0.00     0.000 C 
HETATM   11  C11 UNL     1       0.482  -0.320   0.483  1.00  0.00     0.045 C 
HETATM   12  C12 UNL     1       0.578   1.206   0.433  1.00  0.00    -0.047 C 
HETATM   13  C13 UNL     1      -0.501   1.950   0.131  1.00  0.00    -0.035 C 
HETATM   14  C14 UNL     1      -1.893   1.434  -0.107  1.00  0.00     0.025 C 
HETATM   15  C15 UNL     1       1.917   1.920   0.582  1.00  0.00     0.025 C 
HETATM   16  C16 UNL     1       2.788   1.361   1.730  1.00  0.00     0.093 C 
HETATM   17  C17 UNL     1       2.865  -0.172   1.612  1.00  0.00     0.188 C 
HETATM   18  C18 UNL     1       1.516  -0.876   1.497  1.00  0.00     0.186 C 
HETATM   19  O1  UNL     1       1.798  -2.233   1.234  1.00  0.00    -0.220 OA
HETATM   20  O2  UNL     1       3.666  -0.578   0.528  1.00  0.00    -0.221 OA
HETATM   21  C19 UNL     1       4.178   2.052   1.750  1.00  0.00     0.157 C 
HETATM   22  C20 UNL     1       4.319   3.234   0.792  1.00  0.00     0.033 C 
HETATM   23  C21 UNL     1       3.929   2.957  -0.677  1.00  0.00     0.003 C 
HETATM   24  C22 UNL     1       2.647   2.098  -0.760  1.00  0.00     0.004 C 
HETATM   25  C23 UNL     1       3.692   4.316  -1.376  1.00  0.00     0.000 C 
HETATM   26  C24 UNL     1       5.079   2.255  -1.436  1.00  0.00     0.000 C 
HETATM   27  O3  UNL     1       5.236   1.151   1.537  1.00  0.00    -0.223 OA
HETATM   28  C26 UNL     1       0.880  -0.792  -0.945  1.00  0.00     0.007 C 
HETATM   29  C27 UNL     1      -1.348  -0.211   2.297  1.00  0.00     0.000 C 
HETATM   30  C28 UNL     1      -4.401  -0.208   0.892  1.00  0.00     0.000 C 
HETATM   31  C29 UNL     1      -1.846  -3.053  -2.256  1.00  0.00     0.003 C 
HETATM   32  C30 UNL     1      -3.862  -4.344  -1.715  1.00  0.00     0.003 C 
HETATM   33  O5  UNL     1      -5.463  -2.332  -2.728  1.00  0.00    -0.224 OA
ENDROOT
BRANCH  16  34
HETATM   34  C25 UNL     1       2.069   1.738   3.049  1.00  0.00     0.188 C 
HETATM   35  O4  UNL     1       2.730   1.195   4.174  1.00  0.00    -0.221 OA
ENDBRANCH  16  34
TORSDOF 1
