REMARK  4 active torsions:
REMARK  status: ('A' for Active; 'I' for Inactive)
REMARK    1  A    between atoms: C7_11  and  C16_27 
REMARK    2  A    between atoms: C8_12  and  O6_15 
REMARK    3  A    between atoms: O6_15  and  C10_16 
REMARK    4  A    between atoms: C11_18  and  C15_25 
ROOT
HETATM    1  C1  UNL     1      -2.809  -0.348   1.473  1.00  0.00     0.091 A 
HETATM    2  C2  UNL     1      -2.959   0.959   0.941  1.00  0.00     0.107 A 
HETATM    3  C3  UNL     1      -4.256   1.492   0.750  1.00  0.00     0.054 A 
HETATM    4  C4  UNL     1      -5.395   0.727   1.086  1.00  0.00     0.160 A 
HETATM    5  C5  UNL     1      -5.242  -0.578   1.615  1.00  0.00     0.182 A 
HETATM    6  C6  UNL     1      -3.949  -1.121   1.811  1.00  0.00     0.163 A 
HETATM    7  O1  UNL     1      -3.816  -2.357   2.312  1.00  0.00    -0.188 OA
HETATM    8  O2  UNL     1      -6.326  -1.303   1.934  1.00  0.00    -0.186 OA
HETATM    9  O3  UNL     1      -6.621   1.236   0.900  1.00  0.00    -0.188 OA
HETATM   10  O4  UNL     1      -1.873   1.693   0.623  1.00  0.00    -0.305 OA
HETATM   11  C7  UNL     1      -0.604   1.260   0.775  1.00  0.00     0.125 A 
HETATM   12  C8  UNL     1      -0.326   0.027   1.271  1.00  0.00     0.158 A 
HETATM   13  C9  UNL     1      -1.430  -0.881   1.660  1.00  0.00     0.224 A 
HETATM   14  O5  UNL     1      -1.121  -1.967   2.096  1.00  0.00    -0.284 OA
ENDROOT
BRANCH  12  15
HETATM   15  O6  UNL     1       0.932  -0.389   1.418  1.00  0.00    -0.298 OA
BRANCH  15  16
HETATM   16  C10 UNL     1       1.320  -1.307   0.402  1.00  0.00     0.274 C 
HETATM   17  O7  UNL     1       1.404  -0.633  -0.844  1.00  0.00    -0.326 OA
HETATM   18  C11 UNL     1       1.561  -1.477  -1.984  1.00  0.00     0.184 C 
HETATM   19  C12 UNL     1       2.545  -2.662  -1.717  1.00  0.00     0.215 C 
HETATM   20  C13 UNL     1       3.500  -2.383  -0.537  1.00  0.00     0.220 C 
HETATM   21  O10 UNL     1       1.834  -3.852  -1.422  1.00  0.00    -0.218 OA
HETATM   22  C14 UNL     1       2.680  -1.992   0.732  1.00  0.00     0.241 C 
HETATM   23  O9  UNL     1       4.381  -1.344  -0.947  1.00  0.00    -0.218 OA
HETATM   24  O8  UNL     1       3.451  -1.221   1.643  1.00  0.00    -0.215 OA
BRANCH  18  25
HETATM   25  C15 UNL     1       0.162  -1.879  -2.481  1.00  0.00     0.214 C 
HETATM   26  O11 UNL     1      -0.492  -0.719  -2.942  1.00  0.00    -0.218 OA
ENDBRANCH  18  25
ENDBRANCH  15  16
ENDBRANCH  12  15
BRANCH  11  27
HETATM   27  C16 UNL     1       0.521   2.166   0.387  1.00  0.00     0.027 A 
HETATM   28  C17 UNL     1       0.393   3.012  -0.729  1.00  0.00     0.032 A 
HETATM   29  C18 UNL     1       1.449   3.865  -1.098  1.00  0.00     0.156 A 
HETATM   30  C19 UNL     1       2.639   3.873  -0.346  1.00  0.00     0.156 A 
HETATM   31  O13 UNL     1       1.320   4.654  -2.145  1.00  0.00    -0.188 OA
HETATM   32  C20 UNL     1       2.766   3.027   0.769  1.00  0.00     0.030 A 
HETATM   33  O12 UNL     1       3.633   4.668  -0.684  1.00  0.00    -0.188 OA
HETATM   34  C21 UNL     1       1.711   2.174   1.137  1.00  0.00     0.004 A 
ENDBRANCH  11  27
TORSDOF 4
