REMARK  4 active torsions:
REMARK  status: ('A' for Active; 'I' for Inactive)
REMARK    1  A    between atoms: C2_2  and  O5_27 
REMARK    2  A    between atoms: C14_15  and  O2_16 
REMARK    3  A    between atoms: O2_16  and  C15_17 
REMARK    4  A    between atoms: O5_27  and  C23_28 
ROOT
HETATM    1  C1  UNL     1      -2.121   1.230  -0.088  1.00  0.00     0.180 C 
HETATM    2  C2  UNL     1      -3.002   0.090   0.488  1.00  0.00     0.154 C 
HETATM    3  C3  UNL     1      -2.389  -1.336   0.338  1.00  0.00     0.030 C 
HETATM    4  C4  UNL     1      -0.834  -1.250   0.369  1.00  0.00     0.033 C 
HETATM    5  C5  UNL     1      -0.221  -0.416  -0.803  1.00  0.00     0.008 C 
HETATM    6  C6  UNL     1      -1.197   0.730  -1.209  1.00  0.00     0.036 C 
HETATM    7  C7  UNL     1       1.180   0.072  -0.297  1.00  0.00     0.035 C 
HETATM    8  C8  UNL     1       2.072  -1.145   0.150  1.00  0.00     0.060 C 
HETATM    9  C9  UNL     1       1.402  -2.535   0.141  1.00  0.00     0.040 C 
HETATM   10  C10 UNL     1      -0.055  -2.565   0.648  1.00  0.00     0.153 C 
HETATM   11  O1  UNL     1      -0.691  -3.688   0.064  1.00  0.00    -0.223 OA
HETATM   12  C11 UNL     1       3.315  -1.258  -0.775  1.00  0.00     0.012 C 
HETATM   13  C12 UNL     1       4.131  -0.039  -0.324  1.00  0.00     0.028 C 
HETATM   14  C13 UNL     1       3.459   1.209  -0.922  1.00  0.00     0.035 C 
HETATM   15  C14 UNL     1       1.953   1.039  -1.248  1.00  0.00     0.125 C 
HETATM   16  C17 UNL     1       3.969  -0.107   1.170  1.00  0.00     0.012 C 
HETATM   17  C18 UNL     1       2.733  -0.809   1.465  1.00  0.00     0.168 C 
HETATM   18  O4  UNL     1       2.305  -1.080   2.563  1.00  0.00    -0.292 OA
HETATM   19  C19 UNL     1       4.840   0.393   2.064  1.00  0.00    -0.002 C 
HETATM   20  C20 UNL     1      -0.031  -1.274  -2.068  1.00  0.00     0.000 C 
HETATM   21  C21 UNL     1      -2.853  -1.949  -0.990  1.00  0.00     0.003 C 
HETATM   22  C22 UNL     1      -2.906  -2.242   1.467  1.00  0.00     0.003 C 
HETATM   23  O7  UNL     1      -1.334   1.848   0.916  1.00  0.00    -0.221 OA
ENDROOT
BRANCH   2  24
HETATM   24  O5  UNL     1      -3.318   0.359   1.852  1.00  0.00    -0.302 OA
BRANCH  24  25
HETATM   25  C23 UNL     1      -4.166   1.377   1.984  1.00  0.00     0.272 C 
HETATM   26  C24 UNL     1      -4.531   1.727   3.400  1.00  0.00     0.106 C 
HETATM   27  O6  UNL     1      -4.625   1.994   1.053  1.00  0.00    -0.264 OA
ENDBRANCH  24  25
ENDBRANCH   2  24
BRANCH  15  28
HETATM   28  O2  UNL     1       1.367   2.332  -1.217  1.00  0.00    -0.304 OA
BRANCH  28  29
HETATM   29  C15 UNL     1       1.779   3.100  -2.223  1.00  0.00     0.272 C 
HETATM   30  O3  UNL     1       2.500   2.711  -3.113  1.00  0.00    -0.264 OA
HETATM   31  C16 UNL     1       1.287   4.520  -2.188  1.00  0.00     0.106 C 
ENDBRANCH  28  29
ENDBRANCH  15  28
TORSDOF 4
