REMARK  0 active torsions:
REMARK  status: ('A' for Active; 'I' for Inactive)
ROOT
HETATM    1  C1  UNL     1       4.809   3.272  -0.250  1.00  0.00     0.033 C 
HETATM    2  C2  UNL     1       5.990   2.459   0.310  1.00  0.00     0.153 C 
HETATM    3  C3  UNL     1       6.000   1.008  -0.211  1.00  0.00     0.040 C 
HETATM    4  C4  UNL     1       4.648   0.318   0.055  1.00  0.00     0.060 C 
HETATM    5  C5  UNL     1       3.482   1.125  -0.580  1.00  0.00     0.007 C 
HETATM    6  C6  UNL     1       3.469   2.557  -0.006  1.00  0.00     0.003 C 
HETATM    7  C7  UNL     1       2.180   0.389  -0.203  1.00  0.00     0.001 C 
HETATM    8  C8  UNL     1       2.176  -1.033  -0.785  1.00  0.00     0.007 C 
HETATM    9  C9  UNL     1       3.299  -1.857  -0.160  1.00  0.00     0.065 C 
HETATM   10  C10 UNL     1       4.621  -1.147  -0.346  1.00  0.00     0.150 C 
HETATM   11  O1  UNL     1       5.592  -1.717  -0.791  1.00  0.00    -0.296 OA
HETATM   12  C11 UNL     1       0.742  -1.436  -0.467  1.00  0.00     0.001 C 
HETATM   13  C12 UNL     1       0.008  -0.238  -1.080  1.00  0.00     0.002 C 
HETATM   14  C13 UNL     1       0.836   0.980  -0.654  1.00  0.00     0.000 C 
HETATM   15  C14 UNL     1      -1.494  -0.260  -0.758  1.00  0.00     0.022 C 
HETATM   16  C15 UNL     1      -2.086  -1.588  -1.301  1.00  0.00     0.004 C 
HETATM   17  C16 UNL     1      -1.287  -2.815  -0.789  1.00  0.00     0.000 C 
HETATM   18  C17 UNL     1       0.217  -2.721  -1.098  1.00  0.00     0.000 C 
HETATM   19  C18 UNL     1      -3.621  -1.666  -1.035  1.00  0.00     0.020 C 
HETATM   20  C19 UNL     1      -4.094  -0.643   0.029  1.00  0.00     0.077 C 
HETATM   21  N1  UNL     1      -3.117  -0.600   1.133  1.00  0.00    -0.368 N 
HETATM   22  C20 UNL     1      -1.816  -0.029   0.742  1.00  0.00     0.097 C 
HETATM   23  C21 UNL     1      -3.625  -0.145   2.441  1.00  0.00     0.128 C 
HETATM   24  C22 UNL     1      -4.793   0.854   2.291  1.00  0.00     0.147 C 
HETATM   25  C23 UNL     1      -5.981   0.209   1.533  1.00  0.00     0.034 C 
HETATM   26  C24 UNL     1      -5.524  -0.887   0.553  1.00  0.00     0.025 C 
HETATM   27  C25 UNL     1      -4.332   2.154   1.619  1.00  0.00     0.035 C 
HETATM   28  O2  UNL     1      -5.233   1.225   3.584  1.00  0.00    -0.224 OA
HETATM   29  C26 UNL     1      -4.106  -3.094  -0.729  1.00  0.00     0.002 C 
HETATM   30  C27 UNL     1       3.592   1.178  -2.115  1.00  0.00     0.000 C 
HETATM   31  O3  UNL     1       7.203   3.092  -0.047  1.00  0.00    -0.223 OA
ENDROOT
TORSDOF 0
