REMARK  5 active torsions:
REMARK  status: ('A' for Active; 'I' for Inactive)
REMARK    1  A    between atoms: C3_3  and  C23_28 
REMARK    2  A    between atoms: C6_6  and  O1_7 
REMARK    3  A    between atoms: N1_15  and  C15_17 
REMARK    4  A    between atoms: C18_21  and  O4_26 
REMARK    5  A    between atoms: C23_28  and  O5_29 
ROOT
HETATM    1  C1  UNL     1      -1.361   1.187   2.541  1.00  0.00     0.030 C 
HETATM    2  C2  UNL     1      -2.275  -0.118   1.822  1.00  0.00     0.007 C 
HETATM    3  C3  UNL     1      -1.791  -0.934   0.381  1.00  0.00     0.059 C 
HETATM    4  C4  UNL     1      -0.315  -0.615   0.836  1.00  0.00     0.009 C 
HETATM    5  C5  UNL     1       0.030   0.962   0.624  1.00  0.00     0.055 C 
HETATM    6  C6  UNL     1      -1.024   2.033   1.381  1.00  0.00     0.117 C 
HETATM    7  C8  UNL     1       1.388   1.426   1.310  1.00  0.00     0.009 C 
HETATM    8  C9  UNL     1       2.506   0.567   1.107  1.00  0.00     0.059 C 
HETATM    9  C10 UNL     1       2.779   0.250  -0.322  1.00  0.00     0.133 C 
HETATM   10  C11 UNL     1       1.423  -0.317  -0.990  1.00  0.00     0.060 C 
HETATM   11  C12 UNL     1       0.759  -1.463  -0.106  1.00  0.00     0.005 C 
HETATM   12  C13 UNL     1       0.262   0.857  -0.954  1.00  0.00     0.224 C 
HETATM   13  N1  UNL     1      -0.961   0.412  -1.672  1.00  0.00     0.135 N 
HETATM   14  C14 UNL     1      -1.556  -0.817  -1.161  1.00  0.00     0.253 C 
HETATM   15  O2  UNL     1       3.897  -0.643  -0.310  1.00  0.00    -0.226 OA
HETATM   16  C17 UNL     1       3.067   1.475  -1.143  1.00  0.00     0.060 C 
HETATM   17  C18 UNL     1       4.008   2.441  -0.521  1.00  0.00     0.120 C 
HETATM   18  C19 UNL     1       3.471   2.718   0.957  1.00  0.00     0.058 C 
HETATM   19  C20 UNL     1       3.558   1.431   1.829  1.00  0.00     0.157 C 
HETATM   20  O3  UNL     1       4.893   0.905   1.940  1.00  0.00    -0.223 OA
HETATM   21  C21 UNL     1       1.921   2.932   0.868  1.00  0.00     0.005 C 
ENDROOT
BRANCH   3  22
HETATM   22  C23 UNL     1      -3.160   0.022  -0.068  1.00  0.00     0.144 C 
BRANCH  22  23
HETATM   23  O5  UNL     1      -3.271   0.792  -1.434  1.00  0.00    -0.351 OA
HETATM   24  C24 UNL     1      -3.204   2.314  -1.525  1.00  0.00     0.174 C 
ENDBRANCH  22  23
ENDBRANCH   3  22
BRANCH  13  25
HETATM   25  C15 UNL     1      -0.688   0.205  -3.157  1.00  0.00     0.250 C 
HETATM   26  C16 UNL     1      -1.972  -0.237  -3.936  1.00  0.00     0.037 C 
ENDBRANCH  13  25
BRANCH   6  27
HETATM   27  O1  UNL     1      -2.341   2.336   1.038  1.00  0.00    -0.354 OA
HETATM   28  C7  UNL     1      -2.952   3.242   2.047  1.00  0.00     0.174 C 
ENDBRANCH   6  27
BRANCH  17  29
HETATM   29  O4  UNL     1       3.939   3.600  -1.392  1.00  0.00    -0.354 OA
HETATM   30  C22 UNL     1       4.819   4.650  -0.978  1.00  0.00     0.174 C 
ENDBRANCH  17  29
TORSDOF 5
