REMARK  1 active torsions:
REMARK  status: ('A' for Active; 'I' for Inactive)
REMARK    1  A    between atoms: C3_3  and  C18_21 
ROOT
HETATM    1  C1  UNL     1      -3.334   1.053   1.117  1.00  0.00     0.008 C 
HETATM    2  C2  UNL     1      -3.852  -0.209   0.437  1.00  0.00     0.038 C 
HETATM    3  C3  UNL     1      -3.092  -0.486  -0.877  1.00  0.00     0.176 C 
HETATM    4  C4  UNL     1      -1.606  -0.315  -0.756  1.00  0.00     0.004 A 
HETATM    5  C5  UNL     1      -1.000   0.324   0.379  1.00  0.00    -0.021 A 
HETATM    6  C6  UNL     1      -1.850   0.902   1.465  1.00  0.00     0.026 C 
HETATM    7  C7  UNL     1       0.428   0.404   0.467  1.00  0.00     0.040 A 
HETATM    8  C8  UNL     1       1.225  -0.088  -0.615  1.00  0.00     0.026 A 
HETATM    9  C9  UNL     1       0.621  -0.682  -1.744  1.00  0.00     0.002 A 
HETATM   10  C10 UNL     1      -0.779  -0.799  -1.807  1.00  0.00    -0.002 A 
HETATM   11  C11 UNL     1       2.709   0.025  -0.549  1.00  0.00     0.103 A 
HETATM   12  C12 UNL     1       3.328   0.580   0.537  1.00  0.00     0.063 A 
HETATM   13  C13 UNL     1       2.592   1.094   1.707  1.00  0.00     0.236 A 
HETATM   14  C14 UNL     1       1.105   0.996   1.691  1.00  0.00     0.234 A 
HETATM   15  O1  UNL     1       0.568   1.410   2.693  1.00  0.00    -0.283 OA
HETATM   16  O2  UNL     1       3.182   1.576   2.646  1.00  0.00    -0.283 OA
HETATM   17  C15 UNL     1       4.666   0.527   0.266  1.00  0.00     0.008 A 
HETATM   18  C16 UNL     1       4.846  -0.065  -0.996  1.00  0.00     0.118 A 
HETATM   19  O3  UNL     1       3.586  -0.393  -1.531  1.00  0.00    -0.305 OA
HETATM   20  C17 UNL     1       5.779   1.021   1.168  1.00  0.00     0.033 C 
HETATM   21  O5  UNL     1      -3.572   0.430  -1.848  1.00  0.00    -0.219 OA
ENDROOT
BRANCH   3  22
HETATM   22  C18 UNL     1      -3.469  -1.885  -1.389  1.00  0.00     0.217 C 
HETATM   23  O4  UNL     1      -2.846  -2.840  -0.561  1.00  0.00    -0.218 OA
ENDBRANCH   3  22
TORSDOF 1
