REMARK  0 active torsions:
REMARK  status: ('A' for Active; 'I' for Inactive)
ROOT
HETATM    1  C1  UNL     1       5.014  -1.260   0.408  1.00  0.00     0.033 C 
HETATM    2  C2  UNL     1       5.393   0.180   0.789  1.00  0.00     0.152 C 
HETATM    3  C3  UNL     1       4.965   1.182  -0.309  1.00  0.00     0.028 C 
HETATM    4  C4  UNL     1       3.422   1.103  -0.518  1.00  0.00     0.002 C 
HETATM    5  C5  UNL     1       2.889  -0.352  -0.760  1.00  0.00     0.000 C 
HETATM    6  C6  UNL     1       3.500  -1.397   0.217  1.00  0.00     0.003 C 
HETATM    7  C7  UNL     1       1.338  -0.316  -0.646  1.00  0.00     0.003 C 
HETATM    8  C8  UNL     1       0.789   0.053   0.766  1.00  0.00     0.015 C 
HETATM    9  C9  UNL     1       1.775   1.021   1.482  1.00  0.00     0.004 C 
HETATM   10  C10 UNL     1       2.576   1.900   0.522  1.00  0.00     0.000 C 
HETATM   11  C11 UNL     1      -0.629   0.568   0.516  1.00  0.00    -0.050 C 
HETATM   12  C12 UNL     1      -1.514  -0.188  -0.482  1.00  0.00     0.015 C 
HETATM   13  C13 UNL     1      -0.896  -1.565  -0.859  1.00  0.00     0.004 C 
HETATM   14  C14 UNL     1       0.598  -1.529  -1.242  1.00  0.00     0.001 C 
HETATM   15  C15 UNL     1      -2.924  -0.402   0.154  1.00  0.00     0.004 C 
HETATM   16  C16 UNL     1      -3.533   0.869   0.848  1.00  0.00     0.004 C 
HETATM   17  C17 UNL     1      -2.561   2.070   0.809  1.00  0.00     0.025 C 
HETATM   18  C18 UNL     1      -1.147   1.658   1.125  1.00  0.00    -0.035 C 
HETATM   19  C19 UNL     1      -4.857   1.287   0.170  1.00  0.00     0.000 C 
HETATM   20  C20 UNL     1      -5.912   0.166   0.158  1.00  0.00     0.000 C 
HETATM   21  C21 UNL     1      -5.340  -1.227  -0.207  1.00  0.00     0.000 C 
HETATM   22  C22 UNL     1      -3.926  -1.094  -0.807  1.00  0.00     0.000 C 
HETATM   23  C23 UNL     1      -5.274  -2.113   1.045  1.00  0.00     0.000 C 
HETATM   24  C24 UNL     1      -6.258  -1.918  -1.221  1.00  0.00     0.000 C 
HETATM   25  C25 UNL     1      -3.830   0.557   2.326  1.00  0.00     0.000 C 
HETATM   26  C26 UNL     1      -1.619   0.658  -1.762  1.00  0.00     0.004 C 
HETATM   27  C27 UNL     1       0.625  -1.178   1.674  1.00  0.00     0.004 C 
HETATM   28  C28 UNL     1       3.273  -0.777  -2.187  1.00  0.00     0.000 C 
HETATM   29  C29 UNL     1       5.397   2.609   0.059  1.00  0.00     0.003 C 
HETATM   30  C30 UNL     1       5.678   0.850  -1.631  1.00  0.00     0.003 C 
HETATM   31  O1  UNL     1       6.791   0.236   1.004  1.00  0.00    -0.224 OA
ENDROOT
TORSDOF 0
