REMARK  13 active torsions:
REMARK  status: ('A' for Active; 'I' for Inactive)
REMARK    1  A    between atoms: C2_2  and  O12_41 
REMARK    2  A    between atoms: C7_7  and  O10_35 
REMARK    3  A    between atoms: C8_8  and  O8_31 
REMARK    4  A    between atoms: C11_11  and  O6_27 
REMARK    5  A    between atoms: C14_14  and  C19_21 
REMARK    6  A    between atoms: C16_16  and  O1_17 
REMARK    7  A    between atoms: O1_17  and  C17_18 
REMARK    8  A    between atoms: C19_21  and  O3_22 
REMARK    9  A    between atoms: O3_22  and  C20_23 
REMARK   10  A    between atoms: O6_27  and  C22_28 
REMARK   11  A    between atoms: O8_31  and  C24_32 
REMARK   12  A    between atoms: O10_35  and  C26_36 
REMARK   13  A    between atoms: O12_41  and  C30_42 
ROOT
HETATM    1  C1  UNL     1       2.125  -1.004  -0.686  1.00  0.00    -0.022 C 
HETATM    2  C2  UNL     1       2.990   0.188  -1.031  1.00  0.00     0.142 C 
HETATM    3  C3  UNL     1       2.184   1.451  -0.721  1.00  0.00     0.038 C 
HETATM    4  C4  UNL     1       1.822   1.541   0.779  1.00  0.00     0.038 C 
HETATM    5  C5  UNL     1       1.643   0.133   1.471  1.00  0.00     0.020 C 
HETATM    6  C6  UNL     1       1.391  -0.988   0.455  1.00  0.00    -0.017 C 
HETATM    7  C7  UNL     1       0.340  -2.074   0.674  1.00  0.00     0.186 C 
HETATM    8  C8  UNL     1      -0.879  -1.697  -0.148  1.00  0.00     0.106 C 
HETATM    9  C9  UNL     1      -1.977  -1.088   0.357  1.00  0.00     0.005 C 
HETATM   10  C10 UNL     1      -2.203  -0.918   1.840  1.00  0.00     0.031 C 
HETATM   11  C11 UNL     1      -3.021  -0.535  -0.596  1.00  0.00     0.147 C 
HETATM   12  C12 UNL     1      -3.814   0.711  -0.146  1.00  0.00     0.072 C 
HETATM   13  C13 UNL     1      -3.051   1.789   0.664  1.00  0.00     0.175 C 
HETATM   14  C14 UNL     1      -1.611   2.098   0.275  1.00  0.00     0.014 C 
HETATM   15  C15 UNL     1      -0.699   2.289   1.254  1.00  0.00    -0.000 C 
HETATM   16  C16 UNL     1       0.766   2.649   1.084  1.00  0.00     0.146 C 
HETATM   17  O5  UNL     1      -3.793   2.992   0.623  1.00  0.00    -0.219 OA
HETATM   18  C28 UNL     1       2.961  -0.268   2.149  1.00  0.00     0.004 C 
HETATM   19  C29 UNL     1       0.615   0.188   2.608  1.00  0.00     0.004 C 
HETATM   20  C32 UNL     1       2.094  -2.160  -1.656  1.00  0.00     0.028 C 
ENDROOT
BRANCH  14  21
HETATM   21  C19 UNL     1      -1.254   2.190  -1.186  1.00  0.00     0.176 C 
BRANCH  21  22
HETATM   22  O3  UNL     1      -0.066   2.955  -1.336  1.00  0.00    -0.297 OA
BRANCH  22  23
HETATM   23  C20 UNL     1       0.289   3.092  -2.609  1.00  0.00     0.273 C 
HETATM   24  C21 UNL     1       1.213   2.025  -3.135  1.00  0.00     0.106 C 
HETATM   25  O4  UNL     1      -0.084   3.996  -3.320  1.00  0.00    -0.264 OA
ENDBRANCH  22  23
ENDBRANCH  21  22
ENDBRANCH  14  21
BRANCH  16  26
HETATM   26  O1  UNL     1       0.885   3.711   0.147  1.00  0.00    -0.300 OA
BRANCH  26  27
HETATM   27  C17 UNL     1      -0.115   4.582   0.238  1.00  0.00     0.273 C 
HETATM   28  C18 UNL     1      -1.051   4.363   1.397  1.00  0.00     0.106 C 
HETATM   29  O2  UNL     1      -0.287   5.496  -0.535  1.00  0.00    -0.264 OA
ENDBRANCH  26  27
ENDBRANCH  16  26
BRANCH  11  30
HETATM   30  O6  UNL     1      -3.937  -1.574  -0.910  1.00  0.00    -0.300 OA
BRANCH  30  31
HETATM   31  C22 UNL     1      -4.303  -2.270   0.162  1.00  0.00     0.273 C 
HETATM   32  C23 UNL     1      -4.547  -1.453   1.402  1.00  0.00     0.106 C 
HETATM   33  O7  UNL     1      -4.436  -3.471   0.172  1.00  0.00    -0.264 OA
ENDBRANCH  30  31
ENDBRANCH  11  30
BRANCH   8  34
HETATM   34  O8  UNL     1      -0.850  -1.971  -1.451  1.00  0.00    -0.279 OA
BRANCH  34  35
HETATM   35  C24 UNL     1      -1.084  -3.268  -1.639  1.00  0.00     0.277 C 
HETATM   36  C25 UNL     1      -2.098  -3.875  -0.705  1.00  0.00     0.107 C 
HETATM   37  O9  UNL     1      -0.539  -3.936  -2.484  1.00  0.00    -0.264 OA
ENDBRANCH  34  35
ENDBRANCH   8  34
BRANCH   2  38
HETATM   38  O12 UNL     1       3.328   0.180  -2.412  1.00  0.00    -0.300 OA
BRANCH  38  39
HETATM   39  C30 UNL     1       4.301  -0.684  -2.689  1.00  0.00     0.273 C 
HETATM   40  C31 UNL     1       4.721  -0.730  -4.135  1.00  0.00     0.106 C 
HETATM   41  O13 UNL     1       4.828  -1.393  -1.865  1.00  0.00    -0.264 OA
ENDBRANCH  38  39
ENDBRANCH   2  38
BRANCH   7  42
HETATM   42  O10 UNL     1       0.065  -2.334   2.043  1.00  0.00    -0.293 OA
BRANCH  42  43
HETATM   43  C26 UNL     1       1.066  -2.959   2.654  1.00  0.00     0.273 C 
HETATM   44  C27 UNL     1       2.297  -3.168   1.811  1.00  0.00     0.106 C 
HETATM   45  O11 UNL     1       1.025  -3.342   3.799  1.00  0.00    -0.264 OA
ENDBRANCH  42  43
ENDBRANCH   7  42
TORSDOF 13
