REMARK  16 active torsions:
REMARK  status: ('A' for Active; 'I' for Inactive)
REMARK    1  A    between atoms: C4_4  and  O11_47 
REMARK    2  A    between atoms: C6_6  and  C29_37 
REMARK    3  A    between atoms: C7_7  and  O3_13 
REMARK    4  A    between atoms: C8_8  and  O1_9 
REMARK    5  A    between atoms: O1_9  and  C9_10 
REMARK    6  A    between atoms: O3_13  and  C11_14 
REMARK    7  A    between atoms: C13_17  and  O7_33 
REMARK    8  A    between atoms: C15_19  and  O5_22 
REMARK    9  A    between atoms: O5_22  and  C18_23 
REMARK   10  A    between atoms: C18_23  and  C19_24 
REMARK   11  A    between atoms: C20_25  and  C21_26 
REMARK   12  A    between atoms: O7_33  and  C27_34 
REMARK   13  A    between atoms: C29_37  and  O9_38 
REMARK   14  A    between atoms: O9_38  and  C30_39 
REMARK   15  A    between atoms: C30_39  and  C31_41 
REMARK   16  A    between atoms: O11_47  and  C37_48 
ROOT
HETATM    1  C1  UNL     1      -3.193  -1.186  -0.072  1.00  0.00     0.185 C 
HETATM    2  C2  UNL     1      -3.031  -0.375   1.266  1.00  0.00     0.061 C 
HETATM    3  C3  UNL     1      -2.416   0.930   0.750  1.00  0.00     0.040 C 
HETATM    4  C4  UNL     1      -1.178   1.355   1.541  1.00  0.00     0.129 C 
HETATM    5  C5  UNL     1      -0.057   0.217   1.645  1.00  0.00     0.056 C 
HETATM    6  C6  UNL     1       0.096  -0.969   0.541  1.00  0.00     0.088 C 
HETATM    7  C7  UNL     1      -0.865  -2.275   0.756  1.00  0.00     0.159 C 
HETATM    8  C8  UNL     1      -2.395  -2.451   0.295  1.00  0.00     0.182 C 
HETATM    9  C13 UNL     1       1.590  -1.457   0.654  1.00  0.00     0.132 C 
HETATM   10  C14 UNL     1       2.674  -0.373   0.430  1.00  0.00     0.065 C 
HETATM   11  C15 UNL     1       2.252   1.033   0.852  1.00  0.00     0.145 C 
HETATM   12  C16 UNL     1       1.244   0.937   1.963  1.00  0.00    -0.015 C 
HETATM   13  C17 UNL     1       1.482   1.455   3.184  1.00  0.00    -0.007 C 
HETATM   14  C39 UNL     1      -3.602   1.797   0.270  1.00  0.00     0.070 C 
HETATM   15  C40 UNL     1      -4.576   0.939  -0.570  1.00  0.00     0.177 C 
HETATM   16  C41 UNL     1      -4.619  -0.600  -0.336  1.00  0.00     0.171 C 
HETATM   17  O13 UNL     1      -5.291  -0.789   0.867  1.00  0.00    -0.349 OA
HETATM   18  C42 UNL     1      -4.467  -0.381   1.910  1.00  0.00     0.145 C 
HETATM   19  C43 UNL     1      -5.402  -1.365  -1.402  1.00  0.00     0.040 C 
HETATM   20  O14 UNL     1      -5.283   1.461  -1.402  1.00  0.00    -0.293 OA
HETATM   21  C44 UNL     1      -2.455  -0.875   2.604  1.00  0.00     0.005 C 
HETATM   22  O15 UNL     1      -2.580  -0.869  -1.324  1.00  0.00    -0.220 OA
ENDROOT
BRANCH  11  23
HETATM   23  O5  UNL     1       3.398   1.785   1.229  1.00  0.00    -0.297 OA
BRANCH  23  24
HETATM   24  C18 UNL     1       3.182   3.098   1.178  1.00  0.00     0.296 C 
HETATM   25  O6  UNL     1       3.123   3.807   2.154  1.00  0.00    -0.259 OA
BRANCH  24  26
HETATM   26  C19 UNL     1       3.014   3.664  -0.164  1.00  0.00     0.068 C 
HETATM   27  C20 UNL     1       3.982   4.414  -0.717  1.00  0.00     0.005 C 
BRANCH  27  28
HETATM   28  C21 UNL     1       5.232   4.658   0.063  1.00  0.00     0.000 A 
HETATM   29  C22 UNL     1       5.693   5.973   0.260  1.00  0.00     0.000 A 
HETATM   30  C23 UNL     1       6.871   6.203   0.992  1.00  0.00     0.000 A 
HETATM   31  C24 UNL     1       7.588   5.119   1.529  1.00  0.00     0.000 A 
HETATM   32  C25 UNL     1       7.127   3.807   1.334  1.00  0.00     0.000 A 
HETATM   33  C26 UNL     1       5.951   3.574   0.600  1.00  0.00     0.000 A 
ENDBRANCH  27  28
ENDBRANCH  24  26
ENDBRANCH  23  24
ENDBRANCH  11  23
BRANCH   9  34
HETATM   34  O7  UNL     1       1.891  -2.479  -0.291  1.00  0.00    -0.304 OA
BRANCH  34  35
HETATM   35  C27 UNL     1       3.072  -3.045  -0.066  1.00  0.00     0.272 C 
HETATM   36  C28 UNL     1       3.650  -3.803  -1.230  1.00  0.00     0.106 C 
HETATM   37  O8  UNL     1       3.664  -2.973   0.984  1.00  0.00    -0.264 OA
ENDBRANCH  34  35
ENDBRANCH   9  34
BRANCH   6  38
HETATM   38  C29 UNL     1       0.039  -0.414  -0.887  1.00  0.00     0.157 C 
BRANCH  38  39
HETATM   39  O9  UNL     1       1.340  -0.436  -1.455  1.00  0.00    -0.298 OA
BRANCH  39  40
HETATM   40  C30 UNL     1       1.375   0.129  -2.658  1.00  0.00     0.296 C 
HETATM   41  O10 UNL     1       2.016   1.121  -2.918  1.00  0.00    -0.259 OA
BRANCH  40  42
HETATM   42  C31 UNL     1       0.555  -0.551  -3.705  1.00  0.00     0.063 A 
HETATM   43  C32 UNL     1       0.338  -1.938  -3.639  1.00  0.00     0.005 A 
HETATM   44  C33 UNL     1      -0.434  -2.576  -4.625  1.00  0.00     0.000 A 
HETATM   45  C34 UNL     1      -0.990  -1.828  -5.676  1.00  0.00     0.000 A 
HETATM   46  C35 UNL     1      -0.775  -0.441  -5.742  1.00  0.00     0.000 A 
HETATM   47  C36 UNL     1      -0.002   0.197  -4.758  1.00  0.00     0.005 A 
ENDBRANCH  40  42
ENDBRANCH  39  40
ENDBRANCH  38  39
ENDBRANCH   6  38
BRANCH   4  48
HETATM   48  O11 UNL     1      -0.647   2.521   0.916  1.00  0.00    -0.304 OA
BRANCH  48  49
HETATM   49  C37 UNL     1      -0.904   3.629   1.605  1.00  0.00     0.272 C 
HETATM   50  C38 UNL     1      -1.156   4.857   0.773  1.00  0.00     0.106 C 
HETATM   51  O12 UNL     1      -0.940   3.676   2.813  1.00  0.00    -0.264 OA
ENDBRANCH  48  49
ENDBRANCH   4  48
BRANCH   7  52
HETATM   52  O3  UNL     1      -0.238  -3.436   0.227  1.00  0.00    -0.301 OA
BRANCH  52  53
HETATM   53  C11 UNL     1       0.146  -4.281   1.178  1.00  0.00     0.272 C 
HETATM   54  C12 UNL     1      -0.963  -5.080   1.811  1.00  0.00     0.106 C 
HETATM   55  O4  UNL     1       1.293  -4.424   1.529  1.00  0.00    -0.264 OA
ENDBRANCH  52  53
ENDBRANCH   7  52
BRANCH   8  56
HETATM   56  O1  UNL     1      -3.102  -3.182   1.291  1.00  0.00    -0.299 OA
BRANCH  56  57
HETATM   57  C9  UNL     1      -4.250  -3.676   0.838  1.00  0.00     0.273 C 
HETATM   58  C10 UNL     1      -4.125  -4.617  -0.330  1.00  0.00     0.106 C 
HETATM   59  O2  UNL     1      -5.330  -3.408   1.307  1.00  0.00    -0.264 OA
ENDBRANCH  56  57
ENDBRANCH   8  56
TORSDOF 16
