REMARK  5 active torsions:
REMARK  status: ('A' for Active; 'I' for Inactive)
REMARK    1  A    between atoms: C1_1  and  O7_28 
REMARK    2  A    between atoms: C4_4  and  C19_23 
REMARK    3  A    between atoms: C5_5  and  O2_14 
REMARK    4  A    between atoms: O2_14  and  C13_15 
REMARK    5  A    between atoms: O7_28  and  C22_29 
ROOT
HETATM    1  C1  UNL     1       0.662  -1.502   1.090  1.00  0.00     0.159 C 
HETATM    2  C2  UNL     1      -0.707  -1.629   0.389  1.00  0.00     0.198 C 
HETATM    3  C3  UNL     1      -1.563  -0.400   0.621  1.00  0.00    -0.009 C 
HETATM    4  C4  UNL     1      -1.481   0.867  -0.215  1.00  0.00     0.076 C 
HETATM    5  C5  UNL     1      -0.053   1.410  -0.469  1.00  0.00     0.134 C 
HETATM    6  C6  UNL     1       0.984   1.041   0.623  1.00  0.00     0.051 C 
HETATM    7  C7  UNL     1       1.592  -0.389   0.567  1.00  0.00     0.037 C 
HETATM    8  C8  UNL     1       2.820  -0.234   1.488  1.00  0.00     0.040 C 
HETATM    9  C9  UNL     1       3.414   1.125   1.098  1.00  0.00     0.171 C 
HETATM   10  C10 UNL     1       2.211   1.918   0.674  1.00  0.00    -0.012 C 
HETATM   11  C11 UNL     1       2.234   3.231   0.379  1.00  0.00    -0.007 C 
HETATM   12  O1  UNL     1       4.080   1.707   2.203  1.00  0.00    -0.219 OA
HETATM   13  C12 UNL     1       2.189  -0.742  -0.803  1.00  0.00     0.003 C 
HETATM   14  C15 UNL     1      -2.309   1.891   0.613  1.00  0.00     0.077 C 
HETATM   15  C16 UNL     1      -3.041   1.045   1.619  1.00  0.00     0.169 C 
HETATM   16  C17 UNL     1      -2.469  -0.289   1.604  1.00  0.00     0.007 C 
HETATM   17  C18 UNL     1      -2.842  -1.379   2.574  1.00  0.00     0.033 C 
HETATM   18  O4  UNL     1      -3.953   1.418   2.320  1.00  0.00    -0.292 OA
HETATM   19  O6  UNL     1      -0.549  -1.883  -0.994  1.00  0.00    -0.216 OA
ENDROOT
BRANCH   1  20
HETATM   20  O7  UNL     1       1.338  -2.752   1.018  1.00  0.00    -0.301 OA
BRANCH  20  21
HETATM   21  C22 UNL     1       0.736  -3.697   1.734  1.00  0.00     0.272 C 
HETATM   22  C23 UNL     1       1.051  -5.109   1.322  1.00  0.00     0.106 C 
HETATM   23  O8  UNL     1      -0.016  -3.469   2.652  1.00  0.00    -0.264 OA
ENDBRANCH  20  21
ENDBRANCH   1  20
BRANCH   4  24
HETATM   24  C19 UNL     1      -2.266   0.674  -1.514  1.00  0.00     0.133 C 
HETATM   25  C20 UNL     1      -3.543  -0.113  -1.225  1.00  0.00     0.033 C 
HETATM   26  O5  UNL     1      -1.477  -0.080  -2.408  1.00  0.00    -0.226 OA
HETATM   27  C21 UNL     1      -2.543   2.035  -2.150  1.00  0.00     0.033 C 
ENDBRANCH   4  24
BRANCH   5  28
HETATM   28  O2  UNL     1       0.410   0.992  -1.746  1.00  0.00    -0.304 OA
BRANCH  28  29
HETATM   29  C13 UNL     1       1.111   1.938  -2.367  1.00  0.00     0.272 C 
HETATM   30  C14 UNL     1       2.086   1.438  -3.398  1.00  0.00     0.106 C 
HETATM   31  O3  UNL     1       0.994   3.119  -2.139  1.00  0.00    -0.264 OA
ENDBRANCH  28  29
ENDBRANCH   5  28
TORSDOF 5
