REMARK  9 active torsions:
REMARK  status: ('A' for Active; 'I' for Inactive)
REMARK    1  A    between atoms: C1_1  and  O7_36 
REMARK    2  A    between atoms: C5_5  and  O3_22 
REMARK    3  A    between atoms: C11_11  and  O1_12 
REMARK    4  A    between atoms: O1_12  and  C12_13 
REMARK    5  A    between atoms: C12_13  and  C13_14 
REMARK    6  A    between atoms: C13_14  and  C14_15 
REMARK    7  A    between atoms: O3_22  and  C20_23 
REMARK    8  A    between atoms: C23_27  and  O5_30 
REMARK    9  A    between atoms: O5_30  and  C26_31 
ROOT
HETATM    1  C1  UNL     1       1.907  -0.442  -3.114  1.00  0.00     0.134 C 
HETATM    2  C2  UNL     1       2.521  -1.514  -2.198  1.00  0.00     0.038 C 
HETATM    3  C3  UNL     1       1.682  -2.264  -1.115  1.00  0.00     0.023 C 
HETATM    4  C4  UNL     1       1.709  -1.691   0.340  1.00  0.00    -0.002 C 
HETATM    5  C5  UNL     1       1.426  -0.221   0.812  1.00  0.00     0.093 C 
HETATM    6  C6  UNL     1       0.767   0.926  -0.007  1.00  0.00     0.009 C 
HETATM    7  C7  UNL     1       1.512   1.390  -1.276  1.00  0.00     0.036 C 
HETATM    8  C8  UNL     1       0.979   0.502  -2.388  1.00  0.00    -0.022 C 
HETATM    9  C9  UNL     1      -0.346   0.514  -2.646  1.00  0.00    -0.046 C 
HETATM   10  C10 UNL     1      -1.306   1.034  -1.606  1.00  0.00     0.056 C 
HETATM   11  C11 UNL     1      -0.766   0.830  -0.181  1.00  0.00     0.149 C 
HETATM   12  C17 UNL     1      -1.020  -0.090  -3.859  1.00  0.00     0.026 C 
HETATM   13  C18 UNL     1       1.173   2.872  -1.626  1.00  0.00     0.008 C 
HETATM   14  C19 UNL     1       3.046   1.484  -1.083  1.00  0.00     0.008 C 
HETATM   15  C22 UNL     1       1.047  -2.739   1.240  1.00  0.00     0.003 C 
HETATM   16  C23 UNL     1      -0.360  -3.199   0.901  1.00  0.00     0.146 C 
HETATM   17  C24 UNL     1      -0.524  -3.505  -0.592  1.00  0.00     0.035 C 
HETATM   18  C25 UNL     1       0.214  -2.516  -1.507  1.00  0.00     0.007 C 
HETATM   19  C28 UNL     1       1.701  -3.273   2.287  1.00  0.00    -0.002 C 
HETATM   20  C29 UNL     1       2.393  -3.664  -1.069  1.00  0.00     0.004 C 
ENDROOT
BRANCH  11  21
HETATM   21  O1  UNL     1      -1.384   1.715   0.712  1.00  0.00    -0.300 OA
BRANCH  21  22
HETATM   22  C12 UNL     1      -2.732   1.649   0.881  1.00  0.00     0.272 C 
HETATM   23  O2  UNL     1      -3.460   0.837   0.357  1.00  0.00    -0.264 OA
BRANCH  22  24
HETATM   24  C13 UNL     1      -3.200   2.721   1.860  1.00  0.00     0.086 C 
HETATM   25  C16 UNL     1      -4.590   2.376   2.421  1.00  0.00     0.010 C 
BRANCH  24  26
HETATM   26  C14 UNL     1      -3.166   4.105   1.182  1.00  0.00     0.010 C 
HETATM   27  C15 UNL     1      -3.518   5.264   2.123  1.00  0.00     0.001 C 
ENDBRANCH  24  26
ENDBRANCH  22  24
ENDBRANCH  21  22
ENDBRANCH  11  21
BRANCH   5  28
HETATM   28  O3  UNL     1       0.800  -0.223   2.076  1.00  0.00    -0.277 OA
BRANCH  28  29
HETATM   29  C20 UNL     1       1.572  -0.198   3.201  1.00  0.00     0.277 C 
HETATM   30  C21 UNL     1       0.701  -0.133   4.440  1.00  0.00     0.107 C 
HETATM   31  O4  UNL     1       2.782  -0.207   3.226  1.00  0.00    -0.264 OA
ENDBRANCH  28  29
ENDBRANCH   5  28
BRANCH   1  32
HETATM   32  O7  UNL     1       2.892   0.295  -3.808  1.00  0.00    -0.350 OA
HETATM   33  C30 UNL     1       3.421  -0.364  -4.938  1.00  0.00     0.175 C 
ENDBRANCH   1  32
BRANCH  16  34
HETATM   34  O5  UNL     1      -1.323  -2.263   1.319  1.00  0.00    -0.300 OA
BRANCH  34  35
HETATM   35  C26 UNL     1      -1.687  -2.274   2.632  1.00  0.00     0.273 C 
HETATM   36  C27 UNL     1      -2.656  -1.149   2.928  1.00  0.00     0.106 C 
HETATM   37  O6  UNL     1      -1.281  -3.051   3.465  1.00  0.00    -0.264 OA
ENDBRANCH  34  35
ENDBRANCH  16  34
TORSDOF 9
