REMARK  12 active torsions:
REMARK  status: ('A' for Active; 'I' for Inactive)
REMARK    1  A    between atoms: C1_1  and  O12_47 
REMARK    2  A    between atoms: C2_2  and  O10_43 
REMARK    3  A    between atoms: C5_5  and  O4_18 
REMARK    4  A    between atoms: O4_18  and  C15_19 
REMARK    5  A    between atoms: C18_23  and  O8_30 
REMARK    6  A    between atoms: C20_25  and  O6_26 
REMARK    7  A    between atoms: O6_26  and  C21_27 
REMARK    8  A    between atoms: O8_30  and  C23_31 
REMARK    9  A    between atoms: C23_31  and  C24_32 
REMARK   10  A    between atoms: C25_33  and  C26_34 
REMARK   11  A    between atoms: O10_43  and  C34_44 
REMARK   12  A    between atoms: O12_47  and  C36_48 
ROOT
HETATM    1  C1  UNL     1       1.062   2.492   1.357  1.00  0.00     0.183 C 
HETATM    2  C2  UNL     1       1.354   1.159   0.412  1.00  0.00     0.160 C 
HETATM    3  C3  UNL     1       0.996  -0.511   0.499  1.00  0.00     0.071 C 
HETATM    4  C4  UNL     1      -0.294  -1.297   1.255  1.00  0.00    -0.015 C 
HETATM    5  C5  UNL     1      -0.793  -1.202   2.813  1.00  0.00     0.143 C 
HETATM    6  C6  UNL     1      -0.857   0.145   3.633  1.00  0.00     0.044 C 
HETATM    7  C7  UNL     1      -0.057   1.022   2.696  1.00  0.00     0.061 C 
HETATM    8  C8  UNL     1       0.223   2.494   2.690  1.00  0.00     0.185 C 
HETATM    9  C9  UNL     1      -1.203   2.998   2.806  1.00  0.00     0.171 C 
HETATM   10  C10 UNL     1      -1.727   2.355   4.111  1.00  0.00     0.177 C 
HETATM   11  C11 UNL     1      -2.142   0.880   4.066  1.00  0.00     0.070 C 
HETATM   12  O1  UNL     1      -1.568   2.948   5.154  1.00  0.00    -0.293 OA
HETATM   13  O2  UNL     1      -1.814   2.434   1.704  1.00  0.00    -0.349 OA
HETATM   14  C12 UNL     1      -1.152   1.199   1.532  1.00  0.00     0.145 C 
HETATM   15  C13 UNL     1      -1.403   4.510   2.828  1.00  0.00     0.040 C 
HETATM   16  O3  UNL     1       0.935   2.973   3.801  1.00  0.00    -0.220 OA
HETATM   17  C14 UNL     1       1.376   0.436   2.967  1.00  0.00     0.005 C 
HETATM   18  C17 UNL     1      -0.564  -2.740   0.726  1.00  0.00    -0.000 C 
HETATM   19  C18 UNL     1      -0.581  -2.964  -0.778  1.00  0.00     0.149 C 
HETATM   20  C19 UNL     1       0.663  -2.347  -1.383  1.00  0.00     0.065 C 
HETATM   21  C20 UNL     1       0.762  -0.856  -1.045  1.00  0.00     0.133 C 
HETATM   22  C32 UNL     1      -0.980  -3.801   1.446  1.00  0.00    -0.003 C 
HETATM   23  C33 UNL     1       2.298  -1.332   0.810  1.00  0.00     0.009 C 
ENDROOT
BRANCH  19  24
HETATM   24  O8  UNL     1      -1.756  -2.425  -1.345  1.00  0.00    -0.296 OA
BRANCH  24  25
HETATM   25  C23 UNL     1      -1.988  -2.640  -2.684  1.00  0.00     0.296 C 
HETATM   26  O9  UNL     1      -1.416  -3.559  -3.224  1.00  0.00    -0.259 OA
BRANCH  25  27
HETATM   27  C24 UNL     1      -2.699  -1.729  -3.403  1.00  0.00     0.068 C 
HETATM   28  C25 UNL     1      -3.038  -1.668  -4.707  1.00  0.00     0.005 C 
BRANCH  28  29
HETATM   29  C26 UNL     1      -2.941  -2.487  -5.778  1.00  0.00     0.000 A 
HETATM   30  C27 UNL     1      -3.191  -1.962  -6.998  1.00  0.00     0.000 A 
HETATM   31  C28 UNL     1      -3.116  -2.686  -8.126  1.00  0.00     0.000 A 
HETATM   32  C29 UNL     1      -2.808  -3.988  -8.069  1.00  0.00     0.000 A 
HETATM   33  C30 UNL     1      -2.599  -4.548  -6.871  1.00  0.00     0.000 A 
HETATM   34  C31 UNL     1      -2.675  -3.807  -5.753  1.00  0.00     0.000 A 
ENDBRANCH  28  29
ENDBRANCH  25  27
ENDBRANCH  24  25
ENDBRANCH  19  24
BRANCH  21  35
HETATM   35  O6  UNL     1       1.762  -0.344  -1.893  1.00  0.00    -0.304 OA
BRANCH  35  36
HETATM   36  C21 UNL     1       1.423  -0.074  -3.188  1.00  0.00     0.272 C 
HETATM   37  C22 UNL     1       2.657   0.252  -4.004  1.00  0.00     0.106 C 
HETATM   38  O7  UNL     1       0.302  -0.141  -3.641  1.00  0.00    -0.264 OA
ENDBRANCH  35  36
ENDBRANCH  21  35
BRANCH   5  39
HETATM   39  O4  UNL     1      -0.040  -2.110   3.586  1.00  0.00    -0.300 OA
BRANCH  39  40
HETATM   40  C15 UNL     1      -0.610  -2.647   4.700  1.00  0.00     0.273 C 
HETATM   41  C16 UNL     1       0.342  -3.633   5.347  1.00  0.00     0.106 C 
HETATM   42  O5  UNL     1      -1.718  -2.383   5.110  1.00  0.00    -0.264 OA
ENDBRANCH  39  40
ENDBRANCH   5  39
BRANCH   2  43
HETATM   43  O10 UNL     1       2.732   1.243   0.103  1.00  0.00    -0.301 OA
BRANCH  43  44
HETATM   44  C34 UNL     1       3.165   2.086  -0.876  1.00  0.00     0.272 C 
HETATM   45  C35 UNL     1       4.678   2.068  -0.944  1.00  0.00     0.106 C 
HETATM   46  O11 UNL     1       2.455   2.747  -1.599  1.00  0.00    -0.264 OA
ENDBRANCH  43  44
ENDBRANCH   2  43
BRANCH   1  47
HETATM   47  O12 UNL     1       0.580   3.532   0.541  1.00  0.00    -0.299 OA
BRANCH  47  48
HETATM   48  C36 UNL     1       1.358   4.618   0.270  1.00  0.00     0.273 C 
HETATM   49  C37 UNL     1       0.641   5.537  -0.699  1.00  0.00     0.106 C 
HETATM   50  O13 UNL     1       2.465   4.824   0.715  1.00  0.00    -0.264 OA
ENDBRANCH  47  48
ENDBRANCH   1  47
TORSDOF 12
