REMARK  3 active torsions:
REMARK  status: ('A' for Active; 'I' for Inactive)
REMARK    1  A    between atoms: C14_14  and  O2_23 
REMARK    2  A    between atoms: C15_15  and  O1_21 
REMARK    3  A    between atoms: C16_16  and  C18_18 
ROOT
HETATM    1  C1  UNL     1      -5.391   0.267   0.039  1.00  0.00     0.176 A 
HETATM    2  C2  UNL     1      -4.882  -0.974   0.175  1.00  0.00     0.038 A 
HETATM    3  C3  UNL     1      -3.566  -1.213   0.199  1.00  0.00     0.003 A 
HETATM    4  C4  UNL     1      -2.579  -0.294   0.094  1.00  0.00    -0.003 A 
HETATM    5  C5  UNL     1      -2.922   0.998  -0.046  1.00  0.00    -0.013 A 
HETATM    6  C6  UNL     1      -4.404   1.425  -0.086  1.00  0.00     0.074 A 
HETATM    7  C7  UNL     1      -4.742   2.100  -1.437  1.00  0.00     0.012 C 
HETATM    8  C8  UNL     1      -4.735   2.369   1.093  1.00  0.00     0.012 C 
HETATM    9  C9  UNL     1      -2.039   2.002  -0.162  1.00  0.00     0.038 A 
HETATM   10  C10 UNL     1      -0.684   2.071  -0.182  1.00  0.00     0.195 A 
HETATM   11  C11 UNL     1       0.207   1.043  -0.080  1.00  0.00     0.041 A 
HETATM   12  C12 UNL     1      -0.074  -0.268   0.064  1.00  0.00     0.027 A 
HETATM   13  C13 UNL     1      -1.322  -0.783   0.136  1.00  0.00     0.002 A 
HETATM   14  C14 UNL     1       0.969  -1.152   0.124  1.00  0.00     0.116 C 
HETATM   15  C15 UNL     1       2.260  -0.738   0.174  1.00  0.00     0.112 C 
HETATM   16  C16 UNL     1       2.538   0.560  -0.051  1.00  0.00     0.002 C 
HETATM   17  C17 UNL     1       1.504   1.406  -0.157  1.00  0.00     0.001 C 
HETATM   18  O3  UNL     1      -0.278   3.210  -0.309  1.00  0.00    -0.287 OA
HETATM   19  O4  UNL     1      -6.590   0.441   0.020  1.00  0.00    -0.291 OA
ENDROOT
BRANCH  16  20
HETATM   20  C18 UNL     1       3.957   1.111  -0.215  1.00  0.00     0.024 C 
HETATM   21  C19 UNL     1       4.922   0.839   0.950  1.00  0.00     0.005 C 
HETATM   22  C20 UNL     1       4.553   0.658  -1.560  1.00  0.00     0.005 C 
ENDBRANCH  16  20
BRANCH  15  23
HETATM   23  O1  UNL     1       3.281  -1.657   0.264  1.00  0.00    -0.326 OA
HETATM   24  C21 UNL     1       3.528  -2.150   1.566  1.00  0.00     0.181 C 
ENDBRANCH  15  23
BRANCH  14  25
HETATM   25  O2  UNL     1       0.776  -2.511   0.288  1.00  0.00    -0.326 OA
HETATM   26  C22 UNL     1       0.736  -3.239  -0.920  1.00  0.00     0.181 C 
ENDBRANCH  14  25
TORSDOF 3
