REMARK  13 active torsions:
REMARK  status: ('A' for Active; 'I' for Inactive)
REMARK    1  A    between atoms: C1_1  and  O10_45 
REMARK    2  A    between atoms: C3_3  and  C33_41 
REMARK    3  A    between atoms: C7_7  and  O7_37 
REMARK    4  A    between atoms: C8_8  and  O5_33 
REMARK    5  A    between atoms: C11_11  and  O1_12 
REMARK    6  A    between atoms: O1_12  and  C12_13 
REMARK    7  A    between atoms: C15_17  and  O3_20 
REMARK    8  A    between atoms: O3_20  and  C18_21 
REMARK    9  A    between atoms: C18_21  and  C19_22 
REMARK   10  A    between atoms: C20_23  and  C21_24 
REMARK   11  A    between atoms: O5_33  and  C29_34 
REMARK   12  A    between atoms: O7_37  and  C31_38 
REMARK   13  A    between atoms: O10_45  and  C36_46 
ROOT
HETATM    1  C1  UNL     1      -3.179  -0.372   1.704  1.00  0.00     0.143 C 
HETATM    2  C2  UNL     1      -2.337  -1.630   1.472  1.00  0.00     0.043 C 
HETATM    3  C3  UNL     1      -0.856  -1.392   1.959  1.00  0.00     0.075 C 
HETATM    4  C4  UNL     1      -0.864   0.140   1.973  1.00  0.00    -0.016 C 
HETATM    5  C5  UNL     1      -2.098   0.660   1.847  1.00  0.00    -0.022 C 
HETATM    6  C6  UNL     1      -2.506   2.108   1.877  1.00  0.00     0.028 C 
HETATM    7  C7  UNL     1       0.358   1.021   2.159  1.00  0.00     0.170 C 
HETATM    8  C8  UNL     1       1.713   0.387   1.834  1.00  0.00     0.159 C 
HETATM    9  C9  UNL     1       1.906  -0.089   0.376  1.00  0.00     0.046 C 
HETATM   10  C10 UNL     1       0.686  -0.911  -0.118  1.00  0.00    -0.017 C 
HETATM   11  C11 UNL     1       0.059  -1.976   0.815  1.00  0.00     0.148 C 
HETATM   12  C14 UNL     1       0.961  -1.305  -1.564  1.00  0.00    -0.000 C 
HETATM   13  C15 UNL     1       0.975  -0.107  -2.497  1.00  0.00     0.146 C 
HETATM   14  C16 UNL     1       2.157   0.767  -2.073  1.00  0.00     0.035 C 
HETATM   15  C17 UNL     1       2.077   1.128  -0.580  1.00  0.00     0.009 C 
HETATM   16  C27 UNL     1       1.266  -2.544  -1.977  1.00  0.00    -0.003 C 
HETATM   17  C28 UNL     1       3.210  -0.929   0.328  1.00  0.00     0.007 C 
ENDROOT
BRANCH  13  18
HETATM   18  O3  UNL     1       1.086  -0.448  -3.861  1.00  0.00    -0.296 OA
BRANCH  18  19
HETATM   19  C18 UNL     1       0.662   0.474  -4.788  1.00  0.00     0.296 C 
HETATM   20  O4  UNL     1       0.084   1.459  -4.394  1.00  0.00    -0.259 OA
BRANCH  19  21
HETATM   21  C19 UNL     1       0.888   0.260  -6.113  1.00  0.00     0.068 C 
HETATM   22  C20 UNL     1       0.601   0.969  -7.224  1.00  0.00     0.005 C 
BRANCH  22  23
HETATM   23  C21 UNL     1       0.056   2.169  -7.528  1.00  0.00     0.000 A 
HETATM   24  C22 UNL     1      -0.201   2.424  -8.832  1.00  0.00     0.000 A 
HETATM   25  C23 UNL     1      -0.754   3.572  -9.255  1.00  0.00     0.000 A 
HETATM   26  C24 UNL     1      -1.063   4.534  -8.377  1.00  0.00     0.000 A 
HETATM   27  C25 UNL     1      -0.792   4.329  -7.082  1.00  0.00     0.000 A 
HETATM   28  C26 UNL     1      -0.238   3.174  -6.679  1.00  0.00     0.000 A 
ENDBRANCH  22  23
ENDBRANCH  19  21
ENDBRANCH  18  19
ENDBRANCH  13  18
BRANCH  11  29
HETATM   29  O1  UNL     1       1.005  -2.874   1.298  1.00  0.00    -0.300 OA
BRANCH  29  30
HETATM   30  C12 UNL     1       0.789  -4.223   1.394  1.00  0.00     0.273 C 
HETATM   31  O2  UNL     1       1.507  -4.917   2.082  1.00  0.00    -0.264 OA
HETATM   32  C13 UNL     1      -0.371  -4.834   0.620  1.00  0.00     0.106 C 
ENDBRANCH  29  30
ENDBRANCH  11  29
BRANCH   8  33
HETATM   33  O5  UNL     1       2.735   1.291   2.165  1.00  0.00    -0.301 OA
BRANCH  33  34
HETATM   34  C29 UNL     1       3.525   1.052   3.247  1.00  0.00     0.272 C 
HETATM   35  C30 UNL     1       4.512   2.187   3.427  1.00  0.00     0.106 C 
HETATM   36  O6  UNL     1       3.450   0.089   3.976  1.00  0.00    -0.264 OA
ENDBRANCH  33  34
ENDBRANCH   8  33
BRANCH   3  37
HETATM   37  C33 UNL     1      -0.718  -1.991   3.409  1.00  0.00     0.133 C 
HETATM   38  C34 UNL     1       0.602  -1.795   4.173  1.00  0.00     0.033 C 
HETATM   39  O9  UNL     1      -0.890  -3.384   3.327  1.00  0.00    -0.226 OA
HETATM   40  C35 UNL     1      -1.804  -1.478   4.375  1.00  0.00     0.033 C 
ENDBRANCH   3  37
BRANCH   7  41
HETATM   41  O7  UNL     1       0.347   1.512   3.484  1.00  0.00    -0.298 OA
BRANCH  41  42
HETATM   42  C31 UNL     1       0.601   2.832   3.708  1.00  0.00     0.273 C 
HETATM   43  C32 UNL     1       0.478   3.144   5.184  1.00  0.00     0.106 C 
HETATM   44  O8  UNL     1       0.878   3.649   2.859  1.00  0.00    -0.264 OA
ENDBRANCH  41  42
ENDBRANCH   7  41
BRANCH   1  45
HETATM   45  O10 UNL     1      -4.022  -0.087   0.614  1.00  0.00    -0.300 OA
BRANCH  45  46
HETATM   46  C36 UNL     1      -5.013  -0.982   0.355  1.00  0.00     0.273 C 
HETATM   47  C37 UNL     1      -5.698  -0.647  -0.953  1.00  0.00     0.106 C 
HETATM   48  O11 UNL     1      -5.283  -1.937   1.048  1.00  0.00    -0.264 OA
ENDBRANCH  45  46
ENDBRANCH   1  45
TORSDOF 13
