REMARK  9 active torsions:
REMARK  status: ('A' for Active; 'I' for Inactive)
REMARK    1  A    between atoms: C6_6  and  O1_7 
REMARK    2  A    between atoms: O1_7  and  C7_8 
REMARK    3  A    between atoms: C10_12  and  O10_34 
REMARK    4  A    between atoms: C14_16  and  O3_17 
REMARK    5  A    between atoms: O3_17  and  C15_18 
REMARK    6  A    between atoms: C17_21  and  C23_30 
REMARK    7  A    between atoms: C18_22  and  O6_26 
REMARK    8  A    between atoms: O6_26  and  C21_27 
REMARK    9  A    between atoms: O10_34  and  C25_35 
ROOT
HETATM    1  C1  UNL     1      -2.481   0.704  -1.353  1.00  0.00     0.038 C 
HETATM    2  C2  UNL     1      -1.738   1.253  -0.119  1.00  0.00     0.038 C 
HETATM    3  C3  UNL     1      -0.923   2.500  -0.524  1.00  0.00     0.020 C 
HETATM    4  C4  UNL     1       0.163   1.921  -1.429  1.00  0.00    -0.021 C 
HETATM    5  C5  UNL     1      -0.230   1.150  -2.475  1.00  0.00    -0.022 C 
HETATM    6  C6  UNL     1      -1.679   0.712  -2.664  1.00  0.00     0.142 C 
HETATM    7  C9  UNL     1       0.687   0.585  -3.545  1.00  0.00     0.028 C 
HETATM    8  C10 UNL     1       1.642   2.030  -1.103  1.00  0.00     0.173 C 
HETATM    9  C11 UNL     1       2.263   0.700  -0.641  1.00  0.00     0.189 C 
HETATM   10  C12 UNL     1       1.681  -0.142   0.540  1.00  0.00     0.076 C 
HETATM   11  C13 UNL     1       0.194  -0.645   0.217  1.00  0.00    -0.016 C 
HETATM   12  C14 UNL     1      -0.999   0.203   0.777  1.00  0.00     0.143 C 
HETATM   13  C17 UNL     1       0.101  -2.209   0.356  1.00  0.00     0.010 C 
HETATM   14  C18 UNL     1       0.661  -2.728   1.688  1.00  0.00     0.147 C 
HETATM   15  C19 UNL     1       2.138  -2.358   1.808  1.00  0.00     0.068 C 
HETATM   16  C20 UNL     1       2.614  -1.386   0.725  1.00  0.00     0.161 C 
HETATM   17  O5  UNL     1       3.946  -1.061   1.073  1.00  0.00    -0.223 OA
HETATM   18  C24 UNL     1       1.824   0.644   1.865  1.00  0.00     0.009 C 
HETATM   19  O9  UNL     1       3.631   0.977  -0.423  1.00  0.00    -0.220 OA
HETATM   20  C27 UNL     1      -0.614   3.336   0.743  1.00  0.00     0.004 C 
HETATM   21  C28 UNL     1      -1.729   3.541  -1.357  1.00  0.00     0.004 C 
ENDROOT
BRANCH   6  22
HETATM   22  O1  UNL     1      -1.758  -0.551  -3.292  1.00  0.00    -0.300 OA
BRANCH  22  23
HETATM   23  C7  UNL     1      -2.980  -0.955  -3.742  1.00  0.00     0.273 C 
HETATM   24  O2  UNL     1      -3.997  -0.303  -3.674  1.00  0.00    -0.264 OA
HETATM   25  C8  UNL     1      -2.886  -2.326  -4.382  1.00  0.00     0.106 C 
ENDBRANCH  22  23
ENDBRANCH   6  22
BRANCH  12  26
HETATM   26  O3  UNL     1      -1.974  -0.647   1.309  1.00  0.00    -0.300 OA
BRANCH  26  27
HETATM   27  C15 UNL     1      -2.737  -0.238   2.360  1.00  0.00     0.273 C 
HETATM   28  C16 UNL     1      -3.728  -1.324   2.724  1.00  0.00     0.106 C 
HETATM   29  O4  UNL     1      -2.651   0.834   2.915  1.00  0.00    -0.264 OA
ENDBRANCH  26  27
ENDBRANCH  12  26
BRANCH   8  30
HETATM   30  O10 UNL     1       2.036   3.058  -0.229  1.00  0.00    -0.297 OA
BRANCH  30  31
HETATM   31  C25 UNL     1       2.114   4.326  -0.724  1.00  0.00     0.273 C 
HETATM   32  C26 UNL     1       2.654   5.270   0.331  1.00  0.00     0.106 C 
HETATM   33  O11 UNL     1       1.824   4.646  -1.854  1.00  0.00    -0.264 OA
ENDBRANCH  30  31
ENDBRANCH   8  30
BRANCH  13  34
HETATM   34  C23 UNL     1      -1.184  -2.969  -0.006  1.00  0.00     0.206 C 
HETATM   35  O8  UNL     1      -1.705  -2.506  -1.230  1.00  0.00    -0.216 OA
ENDBRANCH  13  34
BRANCH  14  36
HETATM   36  O6  UNL     1      -0.093  -2.197   2.736  1.00  0.00    -0.300 OA
BRANCH  36  37
HETATM   37  C21 UNL     1      -0.109  -2.719   3.995  1.00  0.00     0.273 C 
HETATM   38  C22 UNL     1       0.641  -4.021   4.212  1.00  0.00     0.106 C 
HETATM   39  O7  UNL     1      -0.732  -2.194   4.894  1.00  0.00    -0.264 OA
ENDBRANCH  36  37
ENDBRANCH  14  36
TORSDOF 9
