REMARK  7 active torsions:
REMARK  status: ('A' for Active; 'I' for Inactive)
REMARK    1  A    between atoms: C3_3  and  C24_31 
REMARK    2  A    between atoms: C7_7  and  O1_8 
REMARK    3  A    between atoms: O1_8  and  C8_9 
REMARK    4  A    between atoms: C10_12  and  O4_18 
REMARK    5  A    between atoms: O4_18  and  C15_19 
REMARK    6  A    between atoms: C19_24  and  O6_27 
REMARK    7  A    between atoms: O6_27  and  C22_28 
ROOT
HETATM    1  C1  UNL     1       0.158   1.022   1.290  1.00  0.00     0.198 C 
HETATM    2  C2  UNL     1      -1.174   0.319   1.211  1.00  0.00    -0.016 C 
HETATM    3  C3  UNL     1      -1.335  -1.200   1.178  1.00  0.00     0.046 C 
HETATM    4  C4  UNL     1      -0.708  -1.745  -0.148  1.00  0.00     0.011 C 
HETATM    5  C5  UNL     1      -0.128  -0.705  -1.141  1.00  0.00     0.026 C 
HETATM    6  C6  UNL     1       1.270  -0.104  -0.790  1.00  0.00     0.058 C 
HETATM    7  C7  UNL     1       1.319   0.218   0.723  1.00  0.00     0.161 C 
HETATM    8  C10 UNL     1       1.474   1.140  -1.700  1.00  0.00     0.130 C 
HETATM    9  C11 UNL     1       1.346   0.811  -3.198  1.00  0.00     0.068 C 
HETATM   10  C12 UNL     1       0.076   0.038  -3.554  1.00  0.00     0.173 C 
HETATM   11  C13 UNL     1      -0.101  -1.122  -2.600  1.00  0.00    -0.015 C 
HETATM   12  C14 UNL     1      -0.169  -2.389  -3.036  1.00  0.00    -0.007 C 
HETATM   13  O3  UNL     1      -1.041   0.908  -3.500  1.00  0.00    -0.219 OA
HETATM   14  C17 UNL     1       2.376  -1.159  -1.071  1.00  0.00     0.005 C 
HETATM   15  C18 UNL     1      -2.898  -1.264   1.070  1.00  0.00     0.041 C 
HETATM   16  C19 UNL     1      -3.408   0.043   0.464  1.00  0.00     0.142 C 
HETATM   17  C20 UNL     1      -2.305   0.972   0.891  1.00  0.00    -0.022 C 
HETATM   18  C21 UNL     1      -2.502   2.453   0.730  1.00  0.00     0.028 C 
HETATM   19  O9  UNL     1       0.421   1.420   2.620  1.00  0.00    -0.216 OA
ENDROOT
BRANCH   3  20
HETATM   20  C24 UNL     1      -0.918  -1.998   2.462  1.00  0.00     0.130 C 
HETATM   21  C25 UNL     1      -1.265  -1.302   3.785  1.00  0.00     0.033 C 
HETATM   22  O8  UNL     1       0.471  -2.220   2.523  1.00  0.00    -0.226 OA
HETATM   23  C26 UNL     1      -1.538  -3.407   2.469  1.00  0.00     0.033 C 
ENDBRANCH   3  20
BRANCH  16  24
HETATM   24  O6  UNL     1      -3.456  -0.017  -0.938  1.00  0.00    -0.300 OA
BRANCH  24  25
HETATM   25  C22 UNL     1      -4.458  -0.741  -1.501  1.00  0.00     0.273 C 
HETATM   26  C23 UNL     1      -4.302  -0.758  -3.008  1.00  0.00     0.106 C 
HETATM   27  O7  UNL     1      -5.339  -1.302  -0.890  1.00  0.00    -0.264 OA
ENDBRANCH  24  25
ENDBRANCH  16  24
BRANCH   7  28
HETATM   28  O1  UNL     1       2.537   0.778   1.126  1.00  0.00    -0.301 OA
BRANCH  28  29
HETATM   29  C8  UNL     1       3.098   0.308   2.279  1.00  0.00     0.272 C 
HETATM   30  C9  UNL     1       4.388   1.048   2.564  1.00  0.00     0.106 C 
HETATM   31  O2  UNL     1       2.632  -0.561   2.983  1.00  0.00    -0.264 OA
ENDBRANCH  28  29
ENDBRANCH   7  28
BRANCH   8  32
HETATM   32  O4  UNL     1       2.738   1.716  -1.507  1.00  0.00    -0.304 OA
BRANCH  32  33
HETATM   33  C15 UNL     1       2.852   2.868  -0.791  1.00  0.00     0.272 C 
HETATM   34  C16 UNL     1       4.309   3.273  -0.693  1.00  0.00     0.106 C 
HETATM   35  O5  UNL     1       1.939   3.474  -0.277  1.00  0.00    -0.264 OA
ENDBRANCH  32  33
ENDBRANCH   8  32
TORSDOF 7
