REMARK  12 active torsions:
REMARK  status: ('A' for Active; 'I' for Inactive)
REMARK    1  A    between atoms: C4_4  and  C27_38 
REMARK    2  A    between atoms: C6_6  and  O10_34 
REMARK    3  A    between atoms: C7_7  and  O8_30 
REMARK    4  A    between atoms: C11_12  and  C19_24 
REMARK    5  A    between atoms: C12_13  and  O4_20 
REMARK    6  A    between atoms: C14_15  and  O2_16 
REMARK    7  A    between atoms: O2_16  and  C15_17 
REMARK    8  A    between atoms: O4_20  and  C17_21 
REMARK    9  A    between atoms: C19_24  and  O6_25 
REMARK   10  A    between atoms: O6_25  and  C20_26 
REMARK   11  A    between atoms: O8_30  and  C23_31 
REMARK   12  A    between atoms: O10_34  and  C25_35 
ROOT
HETATM    1  C1  UNL     1      -2.708   0.677   1.061  1.00  0.00    -0.019 C 
HETATM    2  C2  UNL     1      -3.687  -0.373   0.643  1.00  0.00     0.171 C 
HETATM    3  C3  UNL     1      -3.073  -1.575   1.347  1.00  0.00     0.046 C 
HETATM    4  C4  UNL     1      -1.516  -1.372   1.450  1.00  0.00     0.074 C 
HETATM    5  C5  UNL     1      -1.537   0.163   1.482  1.00  0.00    -0.016 C 
HETATM    6  C6  UNL     1      -0.331   1.059   1.685  1.00  0.00     0.170 C 
HETATM    7  C7  UNL     1       1.008   0.424   1.306  1.00  0.00     0.158 C 
HETATM    8  C8  UNL     1       1.177  -0.015  -0.189  1.00  0.00     0.057 C 
HETATM    9  C9  UNL     1      -0.131  -0.697  -0.728  1.00  0.00     0.040 C 
HETATM   10  C10 UNL     1      -0.754  -1.812   0.156  1.00  0.00     0.158 C 
HETATM   11  O1  UNL     1      -1.627  -2.599  -0.622  1.00  0.00    -0.223 OA
HETATM   12  C11 UNL     1      -0.133  -1.008  -2.254  1.00  0.00     0.061 C 
HETATM   13  C12 UNL     1       0.143   0.271  -3.062  1.00  0.00     0.129 C 
HETATM   14  C13 UNL     1       1.453   0.908  -2.612  1.00  0.00     0.061 C 
HETATM   15  C14 UNL     1       1.508   1.202  -1.107  1.00  0.00     0.129 C 
HETATM   16  C22 UNL     1       2.386  -0.989  -0.195  1.00  0.00     0.005 C 
HETATM   17  O13 UNL     1      -3.659  -0.557  -0.758  1.00  0.00    -0.219 OA
HETATM   18  C30 UNL     1      -3.079   2.119   0.854  1.00  0.00     0.028 C 
ENDROOT
BRANCH  12  19
HETATM   19  C19 UNL     1       0.721  -2.197  -2.714  1.00  0.00     0.154 C 
BRANCH  19  20
HETATM   20  O6  UNL     1       0.279  -2.627  -3.978  1.00  0.00    -0.302 OA
BRANCH  20  21
HETATM   21  C20 UNL     1       0.954  -3.666  -4.539  1.00  0.00     0.272 C 
HETATM   22  C21 UNL     1       0.458  -3.941  -5.945  1.00  0.00     0.106 C 
HETATM   23  O7  UNL     1       1.849  -4.275  -3.999  1.00  0.00    -0.264 OA
ENDBRANCH  20  21
ENDBRANCH  19  20
ENDBRANCH  12  19
BRANCH  13  24
HETATM   24  O4  UNL     1      -0.916   1.169  -2.869  1.00  0.00    -0.304 OA
BRANCH  24  25
HETATM   25  C17 UNL     1      -1.128   2.134  -3.802  1.00  0.00     0.272 C 
HETATM   26  C18 UNL     1      -2.251   3.046  -3.353  1.00  0.00     0.106 C 
HETATM   27  O5  UNL     1      -0.503   2.259  -4.830  1.00  0.00    -0.264 OA
ENDBRANCH  24  25
ENDBRANCH  13  24
BRANCH   7  28
HETATM   28  O8  UNL     1       2.056   1.275   1.686  1.00  0.00    -0.301 OA
BRANCH  28  29
HETATM   29  C23 UNL     1       2.636   1.148   2.911  1.00  0.00     0.272 C 
HETATM   30  C24 UNL     1       3.704   2.209   3.086  1.00  0.00     0.106 C 
HETATM   31  O9  UNL     1       2.344   0.329   3.752  1.00  0.00    -0.264 OA
ENDBRANCH  28  29
ENDBRANCH   7  28
BRANCH  15  32
HETATM   32  O2  UNL     1       2.790   1.708  -0.841  1.00  0.00    -0.304 OA
BRANCH  32  33
HETATM   33  C15 UNL     1       3.000   3.046  -0.959  1.00  0.00     0.272 C 
HETATM   34  C16 UNL     1       4.438   3.384  -0.620  1.00  0.00     0.106 C 
HETATM   35  O3  UNL     1       2.167   3.858  -1.292  1.00  0.00    -0.264 OA
ENDBRANCH  32  33
ENDBRANCH  15  32
BRANCH   4  36
HETATM   36  C27 UNL     1      -1.068  -2.174   2.724  1.00  0.00     0.132 C 
HETATM   37  C28 UNL     1      -1.343  -1.448   4.047  1.00  0.00     0.033 C 
HETATM   38  C29 UNL     1      -1.691  -3.580   2.785  1.00  0.00     0.033 C 
HETATM   39  O12 UNL     1       0.313  -2.427   2.715  1.00  0.00    -0.226 OA
ENDBRANCH   4  36
BRANCH   6  40
HETATM   40  O10 UNL     1      -0.348   1.514   3.019  1.00  0.00    -0.298 OA
BRANCH  40  41
HETATM   41  C25 UNL     1      -0.045   2.812   3.292  1.00  0.00     0.273 C 
HETATM   42  C26 UNL     1      -0.132   3.064   4.782  1.00  0.00     0.106 C 
HETATM   43  O11 UNL     1       0.264   3.648   2.473  1.00  0.00    -0.264 OA
ENDBRANCH  40  41
ENDBRANCH   6  40
TORSDOF 12
