REMARK  12 active torsions:
REMARK  status: ('A' for Active; 'I' for Inactive)
REMARK    1  A    between atoms: C1_1  and  O9_42 
REMARK    2  A    between atoms: C3_3  and  C31_38 
REMARK    3  A    between atoms: C7_7  and  O1_8 
REMARK    4  A    between atoms: O1_8  and  C8_9 
REMARK    5  A    between atoms: C10_12  and  O5_28 
REMARK    6  A    between atoms: C12_14  and  O3_17 
REMARK    7  A    between atoms: O3_17  and  C15_18 
REMARK    8  A    between atoms: C15_18  and  C16_19 
REMARK    9  A    between atoms: C17_20  and  C18_21 
REMARK   10  A    between atoms: O5_28  and  C24_29 
REMARK   11  A    between atoms: O9_42  and  C34_43 
REMARK   12  A    between atoms: C34_43  and  C35_44 
ROOT
HETATM    1  C1  UNL     1      -0.495   0.238   2.059  1.00  0.00     0.170 C 
HETATM    2  C2  UNL     1      -1.648  -0.754   2.109  1.00  0.00    -0.018 C 
HETATM    3  C3  UNL     1      -1.501  -2.276   2.268  1.00  0.00     0.046 C 
HETATM    4  C4  UNL     1      -0.751  -2.849   1.022  1.00  0.00     0.011 C 
HETATM    5  C5  UNL     1      -0.124  -1.831   0.033  1.00  0.00     0.026 C 
HETATM    6  C6  UNL     1       1.159  -1.083   0.512  1.00  0.00     0.058 C 
HETATM    7  C7  UNL     1       0.864  -0.448   1.893  1.00  0.00     0.158 C 
HETATM    8  C10 UNL     1       1.577  -0.007  -0.533  1.00  0.00     0.130 C 
HETATM    9  C11 UNL     1       1.592  -0.512  -1.985  1.00  0.00     0.065 C 
HETATM   10  C12 UNL     1       0.276  -1.188  -2.365  1.00  0.00     0.145 C 
HETATM   11  C13 UNL     1       0.106  -2.332  -1.383  1.00  0.00    -0.017 C 
HETATM   12  C14 UNL     1       0.224  -3.622  -1.728  1.00  0.00    -0.007 C 
HETATM   13  C26 UNL     1       2.312  -2.110   0.673  1.00  0.00     0.005 C 
HETATM   14  C27 UNL     1      -3.022  -2.655   2.164  1.00  0.00     0.043 C 
HETATM   15  C28 UNL     1      -3.745  -1.571   1.377  1.00  0.00     0.170 C 
HETATM   16  C29 UNL     1      -2.876  -0.394   1.695  1.00  0.00    -0.020 C 
HETATM   17  C30 UNL     1      -3.369   0.980   1.343  1.00  0.00     0.028 C 
HETATM   18  O7  UNL     1      -3.710  -1.854  -0.008  1.00  0.00    -0.219 OA
ENDROOT
BRANCH  10  19
HETATM   19  O3  UNL     1       0.273  -1.597  -3.714  1.00  0.00    -0.297 OA
BRANCH  19  20
HETATM   20  C15 UNL     1       0.077  -0.627  -4.670  1.00  0.00     0.296 C 
HETATM   21  O4  UNL     1      -0.065   0.519  -4.312  1.00  0.00    -0.259 OA
BRANCH  20  22
HETATM   22  C16 UNL     1       0.123  -0.950  -5.991  1.00  0.00     0.068 C 
HETATM   23  C17 UNL     1      -0.064  -0.215  -7.106  1.00  0.00     0.005 C 
BRANCH  23  24
HETATM   24  C18 UNL     1      -0.492   1.037  -7.386  1.00  0.00     0.000 A 
HETATM   25  C19 UNL     1      -0.328   1.493  -8.649  1.00  0.00     0.000 A 
HETATM   26  C20 UNL     1      -0.719   2.719  -9.032  1.00  0.00     0.000 A 
HETATM   27  C21 UNL     1      -1.318   3.538  -8.158  1.00  0.00     0.000 A 
HETATM   28  C22 UNL     1      -1.535   3.099  -6.912  1.00  0.00     0.000 A 
HETATM   29  C23 UNL     1      -1.137   1.870  -6.546  1.00  0.00     0.000 A 
ENDBRANCH  23  24
ENDBRANCH  20  22
ENDBRANCH  19  20
ENDBRANCH  10  19
BRANCH   8  30
HETATM   30  O5  UNL     1       2.864   0.488  -0.265  1.00  0.00    -0.304 OA
BRANCH  30  31
HETATM   31  C24 UNL     1       3.034   1.792   0.077  1.00  0.00     0.272 C 
HETATM   32  C25 UNL     1       4.502   2.078   0.323  1.00  0.00     0.106 C 
HETATM   33  O6  UNL     1       2.152   2.609   0.193  1.00  0.00    -0.264 OA
ENDBRANCH  30  31
ENDBRANCH   8  30
BRANCH   7  34
HETATM   34  O1  UNL     1       1.908   0.360   2.355  1.00  0.00    -0.301 OA
BRANCH  34  35
HETATM   35  C8  UNL     1       2.356   0.149   3.629  1.00  0.00     0.272 C 
HETATM   36  C9  UNL     1       3.421   1.167   3.979  1.00  0.00     0.106 C 
HETATM   37  O2  UNL     1       1.954  -0.716   4.378  1.00  0.00    -0.264 OA
ENDBRANCH  34  35
ENDBRANCH   7  34
BRANCH   3  38
HETATM   38  C31 UNL     1      -1.001  -2.834   3.654  1.00  0.00     0.130 C 
HETATM   39  C32 UNL     1      -1.508  -4.263   3.930  1.00  0.00     0.033 C 
HETATM   40  C33 UNL     1      -1.385  -1.927   4.830  1.00  0.00     0.033 C 
HETATM   41  O8  UNL     1       0.401  -2.966   3.719  1.00  0.00    -0.226 OA
ENDBRANCH   3  38
BRANCH   1  42
HETATM   42  O9  UNL     1      -0.516   1.069   3.189  1.00  0.00    -0.294 OA
BRANCH  42  43
HETATM   43  C34 UNL     1      -0.163   2.404   3.256  1.00  0.00     0.296 C 
HETATM   44  O10 UNL     1       0.138   2.744   4.385  1.00  0.00    -0.259 OA
BRANCH  43  45
HETATM   45  C35 UNL     1      -0.112   3.415   2.324  1.00  0.00     0.063 A 
HETATM   46  C36 UNL     1       0.387   4.617   2.697  1.00  0.00     0.005 A 
HETATM   47  C37 UNL     1       0.483   5.661   1.859  1.00  0.00     0.000 A 
HETATM   48  C38 UNL     1       0.066   5.550   0.592  1.00  0.00     0.000 A 
HETATM   49  C39 UNL     1      -0.455   4.384   0.193  1.00  0.00     0.000 A 
HETATM   50  C40 UNL     1      -0.539   3.349   1.046  1.00  0.00     0.005 A 
ENDBRANCH  43  45
ENDBRANCH  42  43
ENDBRANCH   1  42
TORSDOF 12
