REMARK  11 active torsions:
REMARK  status: ('A' for Active; 'I' for Inactive)
REMARK    1  A    between atoms: C2_2  and  O11_49 
REMARK    2  A    between atoms: C6_6  and  O4_27 
REMARK    3  A    between atoms: C12_12  and  O1_15 
REMARK    4  A    between atoms: O1_15  and  C15_16 
REMARK    5  A    between atoms: C15_16  and  C16_17 
REMARK    6  A    between atoms: C17_18  and  C18_19 
REMARK    7  A    between atoms: O4_27  and  C24_28 
REMARK    8  A    between atoms: C24_28  and  C25_29 
REMARK    9  A    between atoms: C31_36  and  O8_43 
REMARK   10  A    between atoms: O8_43  and  C36_44 
REMARK   11  A    between atoms: O11_49  and  C39_50 
ROOT
HETATM    1  C1  UNL     1       0.296   1.040   1.686  1.00  0.00    -0.014 C 
HETATM    2  C2  UNL     1       0.529   2.499   1.319  1.00  0.00     0.199 C 
HETATM    3  C3  UNL     1       0.632   2.709  -0.210  1.00  0.00     0.184 C 
HETATM    4  C4  UNL     1       1.847   2.314  -1.072  1.00  0.00     0.087 C 
HETATM    5  C5  UNL     1       1.905   0.764  -1.365  1.00  0.00     0.070 C 
HETATM    6  C6  UNL     1       0.917  -0.265  -0.697  1.00  0.00     0.156 C 
HETATM    7  C7  UNL     1       1.224  -0.924   0.684  1.00  0.00     0.158 C 
HETATM    8  C8  UNL     1       1.468   0.066   1.849  1.00  0.00     0.045 C 
HETATM    9  C9  UNL     1       1.433  -0.506   3.294  1.00  0.00     0.007 C 
HETATM   10  C10 UNL     1       2.929   0.540   1.774  1.00  0.00     0.007 C 
HETATM   11  C11 UNL     1       0.051  -1.811   1.146  1.00  0.00     0.068 C 
HETATM   12  C12 UNL     1      -1.161  -1.012   1.668  1.00  0.00     0.145 C 
HETATM   13  C13 UNL     1      -0.952   0.504   1.642  1.00  0.00    -0.022 C 
HETATM   14  C14 UNL     1      -2.236   1.293   1.467  1.00  0.00     0.028 C 
HETATM   15  O3  UNL     1       2.341  -1.756   0.503  1.00  0.00    -0.223 OA
HETATM   16  C31 UNL     1       3.176   0.258  -2.073  1.00  0.00     0.156 A 
HETATM   17  C32 UNL     1       3.632   1.222  -3.192  1.00  0.00     0.146 A 
HETATM   18  C33 UNL     1       2.921   2.568  -3.416  1.00  0.00     0.066 C 
HETATM   19  C34 UNL     1       1.771   2.987  -2.480  1.00  0.00     0.161 C 
HETATM   20  O6  UNL     1       0.539   2.733  -3.127  1.00  0.00    -0.223 OA
HETATM   21  O7  UNL     1       4.899   1.403  -2.595  1.00  0.00    -0.351 OA
HETATM   22  C35 UNL     1       4.581   0.532  -1.528  1.00  0.00     0.172 A 
HETATM   23  C38 UNL     1       3.034   3.098  -0.443  1.00  0.00     0.010 C 
HETATM   24  O10 UNL     1      -0.306   3.237  -0.768  1.00  0.00    -0.293 OA
ENDROOT
BRANCH  12  25
HETATM   25  O1  UNL     1      -2.309  -1.431   0.950  1.00  0.00    -0.297 OA
BRANCH  25  26
HETATM   26  C15 UNL     1      -3.436  -1.803   1.645  1.00  0.00     0.296 C 
HETATM   27  O2  UNL     1      -3.493  -1.589   2.834  1.00  0.00    -0.259 OA
BRANCH  26  28
HETATM   28  C16 UNL     1      -4.489  -2.369   0.995  1.00  0.00     0.068 C 
HETATM   29  C17 UNL     1      -5.651  -2.873   1.458  1.00  0.00     0.005 C 
BRANCH  29  30
HETATM   30  C18 UNL     1      -6.146  -3.174   2.679  1.00  0.00     0.000 A 
HETATM   31  C19 UNL     1      -7.469  -3.430   2.784  1.00  0.00     0.000 A 
HETATM   32  C20 UNL     1      -8.054  -3.742   3.951  1.00  0.00     0.000 A 
HETATM   33  C21 UNL     1      -7.320  -3.838   5.068  1.00  0.00     0.000 A 
HETATM   34  C22 UNL     1      -5.998  -3.640   4.987  1.00  0.00     0.000 A 
HETATM   35  C23 UNL     1      -5.430  -3.327   3.811  1.00  0.00     0.000 A 
ENDBRANCH  29  30
ENDBRANCH  26  28
ENDBRANCH  25  26
ENDBRANCH  12  25
BRANCH   6  36
HETATM   36  O4  UNL     1       0.625  -1.318  -1.586  1.00  0.00    -0.298 OA
BRANCH  36  37
HETATM   37  C24 UNL     1      -0.516  -1.543  -2.328  1.00  0.00     0.296 C 
HETATM   38  O5  UNL     1      -0.571  -2.675  -2.773  1.00  0.00    -0.259 OA
BRANCH  37  39
HETATM   39  C25 UNL     1      -1.576  -0.742  -2.674  1.00  0.00     0.063 A 
HETATM   40  C26 UNL     1      -2.610  -1.275  -3.365  1.00  0.00     0.005 A 
HETATM   41  C27 UNL     1      -3.680  -0.553  -3.736  1.00  0.00     0.000 A 
HETATM   42  C28 UNL     1      -3.754   0.750  -3.436  1.00  0.00     0.000 A 
HETATM   43  C29 UNL     1      -2.739   1.313  -2.768  1.00  0.00     0.000 A 
HETATM   44  C30 UNL     1      -1.681   0.572  -2.403  1.00  0.00     0.005 A 
ENDBRANCH  37  39
ENDBRANCH  36  37
ENDBRANCH   6  36
BRANCH   2  45
HETATM   45  O11 UNL     1       1.546   3.143   2.059  1.00  0.00    -0.292 OA
BRANCH  45  46
HETATM   46  C39 UNL     1       1.334   3.316   3.393  1.00  0.00     0.273 C 
HETATM   47  C40 UNL     1       2.510   4.030   4.025  1.00  0.00     0.106 C 
HETATM   48  O12 UNL     1       0.348   2.943   3.988  1.00  0.00    -0.264 OA
ENDBRANCH  45  46
ENDBRANCH   2  45
BRANCH  16  49
HETATM   49  O8  UNL     1       3.007  -1.050  -2.520  1.00  0.00    -0.302 OA
BRANCH  49  50
HETATM   50  C36 UNL     1       3.910  -1.772  -3.232  1.00  0.00     0.272 C 
HETATM   51  C37 UNL     1       3.357  -3.166  -3.467  1.00  0.00     0.106 C 
HETATM   52  O9  UNL     1       4.988  -1.395  -3.627  1.00  0.00    -0.264 OA
ENDBRANCH  49  50
ENDBRANCH  16  49
TORSDOF 11
