REMARK  10 active torsions:
REMARK  status: ('A' for Active; 'I' for Inactive)
REMARK    1  A    between atoms: C7_7  and  O3_13 
REMARK    2  A    between atoms: C8_8  and  O1_9 
REMARK    3  A    between atoms: O1_9  and  C9_10 
REMARK    4  A    between atoms: O3_13  and  C11_14 
REMARK    5  A    between atoms: C13_17  and  O9_28 
REMARK    6  A    between atoms: C16_20  and  O5_21 
REMARK    7  A    between atoms: O5_21  and  C17_22 
REMARK    8  A    between atoms: O9_28  and  C20_29 
REMARK    9  A    between atoms: C24_35  and  O12_38 
REMARK   10  A    between atoms: O12_38  and  C27_39 
ROOT
HETATM    1  C1  UNL     1       0.356  -0.262   1.912  1.00  0.00    -0.018 C 
HETATM    2  C2  UNL     1       1.732  -0.938   1.916  1.00  0.00     0.045 C 
HETATM    3  C3  UNL     1       1.679  -1.845   0.669  1.00  0.00     0.157 C 
HETATM    4  C4  UNL     1       1.556  -1.078  -0.672  1.00  0.00     0.146 C 
HETATM    5  C5  UNL     1       0.283  -0.281  -1.008  1.00  0.00     0.065 C 
HETATM    6  C6  UNL     1       0.319   1.286  -0.924  1.00  0.00     0.059 C 
HETATM    7  C7  UNL     1       0.830   1.826   0.465  1.00  0.00     0.158 C 
HETATM    8  C8  UNL     1       0.245   1.248   1.770  1.00  0.00     0.170 C 
HETATM    9  C13 UNL     1      -1.147   1.723  -1.220  1.00  0.00     0.129 C 
HETATM   10  C14 UNL     1      -1.792   1.051  -2.449  1.00  0.00     0.066 C 
HETATM   11  C15 UNL     1      -0.863   0.130  -3.235  1.00  0.00     0.182 C 
HETATM   12  C16 UNL     1      -0.236  -0.921  -2.327  1.00  0.00     0.159 C 
HETATM   13  C19 UNL     1       1.060  -1.532  -2.835  1.00  0.00     0.172 C 
HETATM   14  O7  UNL     1       1.716  -2.021  -1.699  1.00  0.00    -0.351 OA
HETATM   15  O8  UNL     1      -1.564  -0.446  -4.306  1.00  0.00    -0.221 OA
HETATM   16  C22 UNL     1       1.275   1.914  -1.982  1.00  0.00     0.005 C 
HETATM   17  O11 UNL     1       2.915  -2.512   0.559  1.00  0.00    -0.223 OA
HETATM   18  C23 UNL     1       0.616  -2.941   0.884  1.00  0.00     0.068 C 
HETATM   19  C24 UNL     1      -0.654  -2.544   1.657  1.00  0.00     0.145 C 
HETATM   20  C25 UNL     1      -0.749  -1.046   1.910  1.00  0.00    -0.022 C 
HETATM   21  C26 UNL     1      -2.174  -0.549   2.047  1.00  0.00     0.028 C 
HETATM   22  C29 UNL     1       1.877  -1.706   3.262  1.00  0.00     0.007 C 
HETATM   23  C30 UNL     1       3.026  -0.079   1.932  1.00  0.00     0.007 C 
ENDROOT
BRANCH   7  24
HETATM   24  O3  UNL     1       0.662   3.222   0.517  1.00  0.00    -0.301 OA
BRANCH  24  25
HETATM   25  C11 UNL     1       1.604   4.131   0.903  1.00  0.00     0.272 C 
HETATM   26  O4  UNL     1       1.338   5.310   1.009  1.00  0.00    -0.264 OA
HETATM   27  C12 UNL     1       3.016   3.628   1.145  1.00  0.00     0.106 C 
ENDBRANCH  24  25
ENDBRANCH   7  24
BRANCH   8  28
HETATM   28  O1  UNL     1       0.837   1.883   2.881  1.00  0.00    -0.298 OA
BRANCH  28  29
HETATM   29  C9  UNL     1       0.050   2.380   3.873  1.00  0.00     0.273 C 
HETATM   30  C10 UNL     1       0.906   3.091   4.902  1.00  0.00     0.106 C 
HETATM   31  O2  UNL     1      -1.155   2.295   3.927  1.00  0.00    -0.264 OA
ENDBRANCH  28  29
ENDBRANCH   8  28
BRANCH   9  32
HETATM   32  O9  UNL     1      -1.237   3.116  -1.340  1.00  0.00    -0.304 OA
BRANCH  32  33
HETATM   33  C20 UNL     1      -2.410   3.714  -0.999  1.00  0.00     0.272 C 
HETATM   34  C21 UNL     1      -2.232   5.218  -0.958  1.00  0.00     0.106 C 
HETATM   35  O10 UNL     1      -3.433   3.130  -0.721  1.00  0.00    -0.264 OA
ENDBRANCH  32  33
ENDBRANCH   9  32
BRANCH  12  36
HETATM   36  O5  UNL     1      -1.174  -1.885  -1.923  1.00  0.00    -0.301 OA
BRANCH  36  37
HETATM   37  C17 UNL     1      -2.007  -2.585  -2.743  1.00  0.00     0.272 C 
HETATM   38  O6  UNL     1      -3.182  -2.742  -2.484  1.00  0.00    -0.264 OA
HETATM   39  C18 UNL     1      -1.333  -3.408  -3.825  1.00  0.00     0.106 C 
ENDBRANCH  36  37
ENDBRANCH  12  36
BRANCH  19  40
HETATM   40  O12 UNL     1      -1.796  -3.023   0.975  1.00  0.00    -0.300 OA
BRANCH  40  41
HETATM   41  C27 UNL     1      -1.984  -4.372   0.948  1.00  0.00     0.273 C 
HETATM   42  C28 UNL     1      -3.286  -4.723   0.256  1.00  0.00     0.106 C 
HETATM   43  O13 UNL     1      -1.234  -5.188   1.433  1.00  0.00    -0.264 OA
ENDBRANCH  40  41
ENDBRANCH  19  40
TORSDOF 10
