REMARK  11 active torsions:
REMARK  status: ('A' for Active; 'I' for Inactive)
REMARK    1  A    between atoms: C3_3  and  C32_40 
REMARK    2  A    between atoms: C7_7  and  O1_8 
REMARK    3  A    between atoms: O1_8  and  C8_9 
REMARK    4  A    between atoms: C10_12  and  O5_28 
REMARK    5  A    between atoms: C12_14  and  O3_17 
REMARK    6  A    between atoms: O3_17  and  C15_18 
REMARK    7  A    between atoms: C15_18  and  C16_19 
REMARK    8  A    between atoms: C17_20  and  C18_21 
REMARK    9  A    between atoms: O5_28  and  C24_29 
REMARK   10  A    between atoms: C27_33  and  O7_36 
REMARK   11  A    between atoms: O7_36  and  C30_37 
ROOT
HETATM    1  C1  UNL     1       0.130   0.522   2.888  1.00  0.00     0.198 C 
HETATM    2  C2  UNL     1      -0.946  -0.517   2.671  1.00  0.00    -0.016 C 
HETATM    3  C3  UNL     1      -0.676  -2.016   2.579  1.00  0.00     0.046 C 
HETATM    4  C4  UNL     1       0.289  -2.312   1.388  1.00  0.00     0.011 C 
HETATM    5  C5  UNL     1       0.424  -1.153   0.378  1.00  0.00     0.026 C 
HETATM    6  C6  UNL     1       1.478  -0.080   0.759  1.00  0.00     0.062 C 
HETATM    7  C7  UNL     1       1.492   0.200   2.281  1.00  0.00     0.161 C 
HETATM    8  C10 UNL     1       1.317   1.137  -0.181  1.00  0.00     0.130 C 
HETATM    9  C11 UNL     1       1.323   0.728  -1.667  1.00  0.00     0.065 C 
HETATM   10  C12 UNL     1       0.329  -0.384  -2.008  1.00  0.00     0.145 C 
HETATM   11  C13 UNL     1       0.658  -1.530  -1.071  1.00  0.00    -0.017 C 
HETATM   12  C14 UNL     1       1.181  -2.696  -1.482  1.00  0.00    -0.007 C 
HETATM   13  C26 UNL     1      -2.107  -2.533   2.180  1.00  0.00     0.041 C 
HETATM   14  C27 UNL     1      -2.979  -1.348   1.762  1.00  0.00     0.142 C 
HETATM   15  C28 UNL     1      -2.198  -0.188   2.312  1.00  0.00    -0.022 C 
HETATM   16  C29 UNL     1      -2.798   1.188   2.216  1.00  0.00     0.028 C 
HETATM   17  O10 UNL     1       0.269   0.815   4.265  1.00  0.00    -0.216 OA
ENDROOT
BRANCH  10  18
HETATM   18  O3  UNL     1       0.420  -0.759  -3.362  1.00  0.00    -0.297 OA
BRANCH  18  19
HETATM   19  C15 UNL     1      -0.063   0.096  -4.322  1.00  0.00     0.296 C 
HETATM   20  O4  UNL     1      -0.656   1.085  -3.963  1.00  0.00    -0.259 OA
BRANCH  19  21
HETATM   21  C16 UNL     1       0.163  -0.187  -5.634  1.00  0.00     0.068 C 
HETATM   22  C17 UNL     1      -0.141   0.425  -6.796  1.00  0.00     0.005 C 
BRANCH  22  23
HETATM   23  C18 UNL     1      -0.769   1.550  -7.211  1.00  0.00     0.000 A 
HETATM   24  C19 UNL     1      -0.837   1.763  -8.546  1.00  0.00     0.000 A 
HETATM   25  C20 UNL     1      -1.428   2.841  -9.086  1.00  0.00     0.000 A 
HETATM   26  C21 UNL     1      -1.983   3.767  -8.295  1.00  0.00     0.000 A 
HETATM   27  C22 UNL     1      -1.935   3.589  -6.968  1.00  0.00     0.000 A 
HETATM   28  C23 UNL     1      -1.339   2.503  -6.449  1.00  0.00     0.000 A 
ENDBRANCH  22  23
ENDBRANCH  19  21
ENDBRANCH  18  19
ENDBRANCH  10  18
BRANCH   8  29
HETATM   29  O5  UNL     1       2.377   2.045  -0.038  1.00  0.00    -0.304 OA
BRANCH  29  30
HETATM   30  C24 UNL     1       2.169   3.228   0.597  1.00  0.00     0.272 C 
HETATM   31  C25 UNL     1       3.429   4.069   0.538  1.00  0.00     0.106 C 
HETATM   32  O6  UNL     1       1.138   3.567   1.133  1.00  0.00    -0.264 OA
ENDBRANCH  29  30
ENDBRANCH   8  29
BRANCH   7  33
HETATM   33  O1  UNL     1       2.374   1.238   2.606  1.00  0.00    -0.301 OA
BRANCH  33  34
HETATM   34  C8  UNL     1       3.336   1.050   3.552  1.00  0.00     0.272 C 
HETATM   35  C9  UNL     1       4.066   2.352   3.821  1.00  0.00     0.106 C 
HETATM   36  O2  UNL     1       3.574   0.013   4.128  1.00  0.00    -0.264 OA
ENDBRANCH  33  34
ENDBRANCH   7  33
BRANCH   3  37
HETATM   37  C32 UNL     1      -0.275  -2.700   3.925  1.00  0.00     0.130 C 
HETATM   38  O9  UNL     1      -0.435  -4.086   3.744  1.00  0.00    -0.226 OA
HETATM   39  C33 UNL     1      -1.166  -2.276   5.108  1.00  0.00     0.033 C 
HETATM   40  C34 UNL     1       1.170  -2.529   4.414  1.00  0.00     0.033 C 
ENDBRANCH   3  37
BRANCH  14  41
HETATM   41  O7  UNL     1      -3.056  -1.242   0.363  1.00  0.00    -0.300 OA
BRANCH  41  42
HETATM   42  C30 UNL     1      -3.813  -2.157  -0.297  1.00  0.00     0.273 C 
HETATM   43  C31 UNL     1      -3.652  -1.976  -1.793  1.00  0.00     0.106 C 
HETATM   44  O8  UNL     1      -4.491  -3.010   0.228  1.00  0.00    -0.264 OA
ENDBRANCH  41  42
ENDBRANCH  14  41
TORSDOF 11
