REMARK  13 active torsions:
REMARK  status: ('A' for Active; 'I' for Inactive)
REMARK    1  A    between atoms: C7_7  and  O3_13 
REMARK    2  A    between atoms: C8_8  and  O1_9 
REMARK    3  A    between atoms: O1_9  and  C9_10 
REMARK    4  A    between atoms: O3_13  and  C11_14 
REMARK    5  A    between atoms: C14_18  and  O9_31 
REMARK    6  A    between atoms: C16_20  and  O7_27 
REMARK    7  A    between atoms: C17_21  and  C18_22 
REMARK    8  A    between atoms: C18_22  and  O5_23 
REMARK    9  A    between atoms: O5_23  and  C19_24 
REMARK   10  A    between atoms: O7_27  and  C21_28 
REMARK   11  A    between atoms: O9_31  and  C23_32 
REMARK   12  A    between atoms: C26_38  and  O13_41 
REMARK   13  A    between atoms: O13_41  and  C29_42 
ROOT
HETATM    1  C1  UNL     1      -1.422  -0.913   1.662  1.00  0.00    -0.018 C 
HETATM    2  C2  UNL     1      -0.169  -1.687   2.069  1.00  0.00     0.049 C 
HETATM    3  C3  UNL     1       0.242  -2.298   0.719  1.00  0.00     0.174 C 
HETATM    4  C4  UNL     1       0.309  -1.314  -0.484  1.00  0.00     0.129 C 
HETATM    5  C5  UNL     1       0.975   0.107  -0.545  1.00  0.00    -0.012 C 
HETATM    6  C6  UNL     1       0.550   1.420   0.255  1.00  0.00     0.071 C 
HETATM    7  C7  UNL     1      -0.946   1.453   0.726  1.00  0.00     0.161 C 
HETATM    8  C8  UNL     1      -1.493   0.588   1.891  1.00  0.00     0.170 C 
HETATM    9  C13 UNL     1       1.456   1.886   1.433  1.00  0.00     0.009 C 
HETATM   10  C14 UNL     1       0.779   2.592  -0.788  1.00  0.00     0.132 C 
HETATM   11  C15 UNL     1       2.238   2.678  -1.263  1.00  0.00     0.061 C 
HETATM   12  C16 UNL     1       2.690   1.411  -1.988  1.00  0.00     0.133 C 
HETATM   13  C17 UNL     1       2.399   0.117  -1.192  1.00  0.00     0.078 C 
HETATM   14  O11 UNL     1      -0.943  -1.258  -1.145  1.00  0.00    -0.193 OA
HETATM   15  O12 UNL     1       1.509  -2.896   0.849  1.00  0.00    -0.219 OA
HETATM   16  C25 UNL     1      -0.737  -3.455   0.443  1.00  0.00     0.072 C 
HETATM   17  C26 UNL     1      -2.219  -3.087   0.665  1.00  0.00     0.145 C 
HETATM   18  C27 UNL     1      -2.414  -1.615   1.054  1.00  0.00    -0.022 C 
HETATM   19  C28 UNL     1      -3.768  -1.062   0.650  1.00  0.00     0.028 C 
HETATM   20  C31 UNL     1      -0.539  -2.662   3.222  1.00  0.00     0.007 C 
HETATM   21  C32 UNL     1       1.076  -1.008   2.671  1.00  0.00     0.007 C 
ENDROOT
BRANCH  13  22
HETATM   22  C18 UNL     1       3.551  -0.348  -0.288  1.00  0.00     0.158 C 
BRANCH  22  23
HETATM   23  O5  UNL     1       3.788  -1.719  -0.496  1.00  0.00    -0.301 OA
BRANCH  23  24
HETATM   24  C19 UNL     1       4.661  -2.333   0.347  1.00  0.00     0.272 C 
HETATM   25  C20 UNL     1       4.776  -3.804  -0.002  1.00  0.00     0.106 C 
HETATM   26  O6  UNL     1       5.265  -1.785   1.240  1.00  0.00    -0.264 OA
ENDBRANCH  23  24
ENDBRANCH  22  23
ENDBRANCH  13  22
BRANCH  12  27
HETATM   27  O7  UNL     1       2.030   1.349  -3.227  1.00  0.00    -0.304 OA
BRANCH  27  28
HETATM   28  C21 UNL     1       2.486   2.143  -4.236  1.00  0.00     0.272 C 
HETATM   29  C22 UNL     1       1.552   2.063  -5.425  1.00  0.00     0.106 C 
HETATM   30  O8  UNL     1       3.477   2.837  -4.186  1.00  0.00    -0.264 OA
ENDBRANCH  27  28
ENDBRANCH  12  27
BRANCH   7  31
HETATM   31  O3  UNL     1      -1.763   1.229  -0.394  1.00  0.00    -0.301 OA
BRANCH  31  32
HETATM   32  C11 UNL     1      -2.570   2.216  -0.872  1.00  0.00     0.272 C 
HETATM   33  C12 UNL     1      -3.221   1.766  -2.164  1.00  0.00     0.106 C 
HETATM   34  O4  UNL     1      -2.722   3.306  -0.371  1.00  0.00    -0.264 OA
ENDBRANCH  31  32
ENDBRANCH   7  31
BRANCH  10  35
HETATM   35  O9  UNL     1       0.401   3.843  -0.274  1.00  0.00    -0.304 OA
BRANCH  35  36
HETATM   36  C23 UNL     1      -0.026   4.800  -1.144  1.00  0.00     0.272 C 
HETATM   37  C24 UNL     1      -0.423   6.051  -0.386  1.00  0.00     0.106 C 
HETATM   38  O10 UNL     1      -0.083   4.674  -2.346  1.00  0.00    -0.264 OA
ENDBRANCH  35  36
ENDBRANCH  10  35
BRANCH   8  39
HETATM   39  O1  UNL     1      -1.006   0.942   3.163  1.00  0.00    -0.298 OA
BRANCH  39  40
HETATM   40  C9  UNL     1      -1.463   2.071   3.769  1.00  0.00     0.273 C 
HETATM   41  C10 UNL     1      -0.797   2.242   5.119  1.00  0.00     0.106 C 
HETATM   42  O2  UNL     1      -2.282   2.830   3.304  1.00  0.00    -0.264 OA
ENDBRANCH  39  40
ENDBRANCH   8  39
BRANCH  17  43
HETATM   43  O13 UNL     1      -2.931  -3.471  -0.496  1.00  0.00    -0.300 OA
BRANCH  43  44
HETATM   44  C29 UNL     1      -4.136  -4.092  -0.359  1.00  0.00     0.273 C 
HETATM   45  C30 UNL     1      -4.679  -4.485  -1.718  1.00  0.00     0.106 C 
HETATM   46  O14 UNL     1      -4.697  -4.320   0.688  1.00  0.00    -0.264 OA
ENDBRANCH  43  44
ENDBRANCH  17  43
TORSDOF 13
