REMARK  12 active torsions:
REMARK  status: ('A' for Active; 'I' for Inactive)
REMARK    1  A    between atoms: C4_4  and  O7_27 
REMARK    2  A    between atoms: C7_7  and  O3_13 
REMARK    3  A    between atoms: C8_8  and  O1_9 
REMARK    4  A    between atoms: O1_9  and  C9_10 
REMARK    5  A    between atoms: O3_13  and  C11_14 
REMARK    6  A    between atoms: C16_20  and  O5_23 
REMARK    7  A    between atoms: O5_23  and  C19_24 
REMARK    8  A    between atoms: O7_27  and  C21_28 
REMARK    9  A    between atoms: C23_31  and  O9_35 
REMARK   10  A    between atoms: O9_35  and  C27_36 
REMARK   11  A    between atoms: C27_36  and  C28_38 
REMARK   12  A    between atoms: C28_38  and  C30_40 
ROOT
HETATM    1  C1  UNL     1       4.607   1.147  -0.006  1.00  0.00    -0.023 C 
HETATM    2  C2  UNL     1       3.933   0.041  -0.274  1.00  0.00     0.022 C 
HETATM    3  C3  UNL     1       4.205  -1.310  -0.505  1.00  0.00     0.063 C 
HETATM    4  C4  UNL     1       2.403  -1.958  -0.678  1.00  0.00     0.145 C 
HETATM    5  C5  UNL     1       1.043  -1.085   0.319  1.00  0.00    -0.017 C 
HETATM    6  C6  UNL     1       0.629   0.816  -0.016  1.00  0.00     0.046 C 
HETATM    7  C7  UNL     1       1.815   2.314  -0.383  1.00  0.00     0.159 C 
HETATM    8  C8  UNL     1       3.525   2.500   0.273  1.00  0.00     0.170 C 
HETATM    9  C13 UNL     1      -0.206   0.934  -1.336  1.00  0.00     0.007 C 
HETATM   10  C14 UNL     1      -0.204   1.134   1.277  1.00  0.00     0.009 C 
HETATM   11  C15 UNL     1      -1.389   0.112   1.641  1.00  0.00     0.035 C 
HETATM   12  C16 UNL     1      -1.675  -1.048   0.619  1.00  0.00     0.146 C 
HETATM   13  C17 UNL     1      -0.340  -1.843   0.491  1.00  0.00    -0.000 C 
HETATM   14  C18 UNL     1      -0.307  -2.996   1.155  1.00  0.00    -0.003 C 
HETATM   15  C23 UNL     1       5.383  -1.601   0.573  1.00  0.00     0.131 C 
HETATM   16  C24 UNL     1       6.521  -0.443   0.209  1.00  0.00     0.052 C 
HETATM   17  C25 UNL     1       5.905   1.015   0.269  1.00  0.00    -0.047 C 
HETATM   18  C26 UNL     1       6.755   2.172   0.723  1.00  0.00     0.026 C 
HETATM   19  C32 UNL     1       3.464   0.204   1.320  1.00  0.00     0.004 C 
HETATM   20  C33 UNL     1       3.405   0.225  -1.775  1.00  0.00     0.004 C 
ENDROOT
BRANCH  15  21
HETATM   21  O9  UNL     1       6.177  -2.776   0.365  1.00  0.00    -0.304 OA
BRANCH  21  22
HETATM   22  C27 UNL     1       5.794  -4.073   0.442  1.00  0.00     0.271 C 
HETATM   23  O10 UNL     1       4.646  -4.447   0.697  1.00  0.00    -0.264 OA
BRANCH  22  24
HETATM   24  C28 UNL     1       6.945  -5.021   0.205  1.00  0.00     0.086 C 
HETATM   25  C29 UNL     1       7.786  -4.457  -0.967  1.00  0.00     0.010 C 
BRANCH  24  26
HETATM   26  C30 UNL     1       6.552  -6.474  -0.041  1.00  0.00     0.010 C 
HETATM   27  C31 UNL     1       7.858  -7.288  -0.233  1.00  0.00     0.001 C 
ENDBRANCH  24  26
ENDBRANCH  22  24
ENDBRANCH  21  22
ENDBRANCH  15  21
BRANCH   4  28
HETATM   28  O7  UNL     1       2.632  -3.396  -0.485  1.00  0.00    -0.300 OA
BRANCH  28  29
HETATM   29  C21 UNL     1       1.621  -4.274  -0.903  1.00  0.00     0.273 C 
HETATM   30  C22 UNL     1       1.784  -5.751  -0.665  1.00  0.00     0.106 C 
HETATM   31  O8  UNL     1       0.601  -3.855  -1.461  1.00  0.00    -0.264 OA
ENDBRANCH  28  29
ENDBRANCH   4  28
BRANCH   8  32
HETATM   32  O1  UNL     1       4.250   3.619  -0.304  1.00  0.00    -0.298 OA
BRANCH  32  33
HETATM   33  C9  UNL     1       3.807   4.882   0.072  1.00  0.00     0.273 C 
HETATM   34  O2  UNL     1       2.894   5.022   0.889  1.00  0.00    -0.264 OA
HETATM   35  C10 UNL     1       4.514   6.089  -0.470  1.00  0.00     0.106 C 
ENDBRANCH  32  33
ENDBRANCH   8  32
BRANCH   7  36
HETATM   36  O3  UNL     1       1.169   3.643  -0.139  1.00  0.00    -0.301 OA
BRANCH  36  37
HETATM   37  C11 UNL     1       0.106   4.182  -0.910  1.00  0.00     0.272 C 
HETATM   38  O4  UNL     1      -0.332   3.633  -1.921  1.00  0.00    -0.264 OA
HETATM   39  C12 UNL     1      -0.452   5.518  -0.511  1.00  0.00     0.106 C 
ENDBRANCH  36  37
ENDBRANCH   7  36
BRANCH  12  40
HETATM   40  O5  UNL     1      -2.816  -1.839   1.077  1.00  0.00    -0.300 OA
BRANCH  40  41
HETATM   41  C19 UNL     1      -3.400  -2.763   0.123  1.00  0.00     0.273 C 
HETATM   42  C20 UNL     1      -2.926  -2.899  -1.318  1.00  0.00     0.106 C 
HETATM   43  O6  UNL     1      -4.368  -3.440   0.483  1.00  0.00    -0.264 OA
ENDBRANCH  40  41
ENDBRANCH  12  40
TORSDOF 12
