REMARK  8 active torsions:
REMARK  status: ('A' for Active; 'I' for Inactive)
REMARK    1  A    between atoms: C4_4  and  O5_23 
REMARK    2  A    between atoms: C8_8  and  O1_9 
REMARK    3  A    between atoms: O1_9  and  C9_10 
REMARK    4  A    between atoms: C14_16  and  O3_19 
REMARK    5  A    between atoms: O3_19  and  C17_20 
REMARK    6  A    between atoms: O5_23  and  C19_24 
REMARK    7  A    between atoms: C21_27  and  O7_31 
REMARK    8  A    between atoms: O7_31  and  C25_32 
ROOT
HETATM    1  C1  UNL     1       4.628   0.784  -0.270  1.00  0.00    -0.025 C 
HETATM    2  C2  UNL     1       3.827  -0.178  -0.484  1.00  0.00     0.021 C 
HETATM    3  C3  UNL     1       3.860  -1.540  -0.685  1.00  0.00     0.060 C 
HETATM    4  C4  UNL     1       2.086  -1.960  -0.737  1.00  0.00     0.131 C 
HETATM    5  C5  UNL     1       0.879  -0.991   0.311  1.00  0.00     0.049 C 
HETATM    6  C6  UNL     1       0.621   0.887  -0.097  1.00  0.00     0.009 C 
HETATM    7  C7  UNL     1       1.912   2.216  -0.422  1.00  0.00     0.035 C 
HETATM    8  C8  UNL     1       3.731   2.267   0.038  1.00  0.00     0.142 C 
HETATM    9  C11 UNL     1      -0.107   1.076  -1.487  1.00  0.00     0.001 C 
HETATM   10  C12 UNL     1      -0.313   1.357   1.056  1.00  0.00     0.003 C 
HETATM   11  C13 UNL     1      -1.590   0.422   1.343  1.00  0.00     0.035 C 
HETATM   12  C14 UNL     1      -1.813  -0.831   0.402  1.00  0.00     0.143 C 
HETATM   13  C15 UNL     1      -0.518  -1.657   0.478  1.00  0.00    -0.015 C 
HETATM   14  C16 UNL     1      -0.554  -2.732   1.266  1.00  0.00    -0.007 C 
HETATM   15  C21 UNL     1       4.943  -2.077   0.306  1.00  0.00     0.131 C 
HETATM   16  C22 UNL     1       6.281  -1.149  -0.163  1.00  0.00     0.052 C 
HETATM   17  C23 UNL     1       5.934   0.438  -0.073  1.00  0.00    -0.047 C 
HETATM   18  C24 UNL     1       6.965   1.453   0.319  1.00  0.00     0.026 C 
HETATM   19  C27 UNL     1       3.471   0.065   1.162  1.00  0.00     0.004 C 
HETATM   20  C28 UNL     1       3.268   0.148  -1.976  1.00  0.00     0.004 C 
ENDROOT
BRANCH   4  21
HETATM   21  O5  UNL     1       2.237  -3.411  -0.534  1.00  0.00    -0.304 OA
BRANCH  21  22
HETATM   22  C19 UNL     1       1.181  -4.254  -0.866  1.00  0.00     0.272 C 
HETATM   23  C20 UNL     1       1.321  -5.728  -0.605  1.00  0.00     0.106 C 
HETATM   24  O6  UNL     1       0.148  -3.816  -1.377  1.00  0.00    -0.264 OA
ENDBRANCH  21  22
ENDBRANCH   4  21
BRANCH  15  25
HETATM   25  O7  UNL     1       5.067  -3.500  -0.001  1.00  0.00    -0.304 OA
BRANCH  25  26
HETATM   26  C25 UNL     1       6.007  -4.295   0.710  1.00  0.00     0.272 C 
HETATM   27  O8  UNL     1       6.114  -5.484   0.386  1.00  0.00    -0.264 OA
HETATM   28  C26 UNL     1       6.849  -3.783   1.856  1.00  0.00     0.106 C 
ENDBRANCH  25  26
ENDBRANCH  15  25
BRANCH  12  29
HETATM   29  O3  UNL     1      -3.007  -1.556   0.852  1.00  0.00    -0.300 OA
BRANCH  29  30
HETATM   30  C17 UNL     1      -3.531  -2.597  -0.008  1.00  0.00     0.273 C 
HETATM   31  C18 UNL     1      -2.963  -2.920  -1.381  1.00  0.00     0.106 C 
HETATM   32  O4  UNL     1      -4.519  -3.230   0.377  1.00  0.00    -0.264 OA
ENDBRANCH  29  30
ENDBRANCH  12  29
BRANCH   8  33
HETATM   33  O1  UNL     1       4.453   3.334  -0.607  1.00  0.00    -0.300 OA
BRANCH  33  34
HETATM   34  C9  UNL     1       4.022   4.611  -0.247  1.00  0.00     0.273 C 
HETATM   35  O2  UNL     1       3.109   4.773   0.571  1.00  0.00    -0.264 OA
HETATM   36  C10 UNL     1       4.729   5.806  -0.818  1.00  0.00     0.106 C 
ENDBRANCH  33  34
ENDBRANCH   8  33
TORSDOF 8
