REMARK  4 active torsions:
REMARK  status: ('A' for Active; 'I' for Inactive)
REMARK    1  A    between atoms: C12_13  and  O2_16 
REMARK    2  A    between atoms: O2_16  and  C15_17 
REMARK    3  A    between atoms: C18_21  and  O4_24 
REMARK    4  A    between atoms: O4_24  and  C21_25 
ROOT
HETATM    1  C1  UNL     1       4.326   1.242  -0.145  1.00  0.00     0.010 C 
HETATM    2  C2  UNL     1       3.721   0.210  -0.290  1.00  0.00     0.021 C 
HETATM    3  C3  UNL     1       4.000  -1.075  -0.566  1.00  0.00     0.007 C 
HETATM    4  C4  UNL     1       2.329  -1.626  -0.634  1.00  0.00     0.005 C 
HETATM    5  C5  UNL     1       0.889  -0.979   0.224  1.00  0.00     0.024 C 
HETATM    6  C6  UNL     1       0.325   0.722  -0.048  1.00  0.00     0.025 C 
HETATM    7  C7  UNL     1       1.349   2.184   0.380  1.00  0.00     0.015 C 
HETATM    8  C8  UNL     1       3.157   2.469   0.010  1.00  0.00     0.187 C 
HETATM    9  O1  UNL     1       3.572   3.626   0.145  1.00  0.00    -0.287 OA
HETATM   10  C9  UNL     1      -0.121   0.908  -1.560  1.00  0.00     0.005 C 
HETATM   11  C10 UNL     1      -0.950   0.865   0.855  1.00  0.00     0.007 C 
HETATM   12  C11 UNL     1      -1.846  -0.442   1.006  1.00  0.00     0.035 C 
HETATM   13  C12 UNL     1      -1.663  -1.552  -0.075  1.00  0.00     0.143 C 
HETATM   14  C13 UNL     1      -0.220  -1.944  -0.131  1.00  0.00    -0.017 C 
HETATM   15  C14 UNL     1       0.090  -3.194  -0.467  1.00  0.00    -0.007 C 
HETATM   16  C17 UNL     1       5.090  -1.416   0.451  1.00  0.00     0.035 C 
HETATM   17  C18 UNL     1       6.285  -0.389  -0.063  1.00  0.00     0.142 C 
HETATM   18  C19 UNL     1       5.660   1.163  -0.020  1.00  0.00    -0.018 C 
HETATM   19  C20 UNL     1       6.478   2.398   0.285  1.00  0.00     0.029 C 
HETATM   20  C23 UNL     1       3.383   0.197   1.374  1.00  0.00     0.004 C 
HETATM   21  C24 UNL     1       3.050   0.601  -1.686  1.00  0.00     0.004 C 
ENDROOT
BRANCH  13  22
HETATM   22  O2  UNL     1      -2.416  -2.752   0.179  1.00  0.00    -0.300 OA
BRANCH  22  23
HETATM   23  C15 UNL     1      -3.795  -2.582   0.101  1.00  0.00     0.273 C 
HETATM   24  C16 UNL     1      -4.686  -3.759   0.366  1.00  0.00     0.106 C 
HETATM   25  O3  UNL     1      -4.292  -1.496  -0.220  1.00  0.00    -0.264 OA
ENDBRANCH  22  23
ENDBRANCH  13  22
BRANCH  17  26
HETATM   26  O4  UNL     1       7.501  -0.620   0.713  1.00  0.00    -0.300 OA
BRANCH  26  27
HETATM   27  C21 UNL     1       8.751  -0.183   0.157  1.00  0.00     0.273 C 
HETATM   28  O5  UNL     1       9.777  -0.369   0.819  1.00  0.00    -0.264 OA
HETATM   29  C22 UNL     1       8.891   0.398  -1.240  1.00  0.00     0.106 C 
ENDBRANCH  26  27
ENDBRANCH  17  26
TORSDOF 4
