REMARK  11 active torsions:
REMARK  status: ('A' for Active; 'I' for Inactive)
REMARK    1  A    between atoms: C1_2  and  O2_4 
REMARK    2  A    between atoms: O2_4  and  C3_5 
REMARK    3  A    between atoms: C6_8  and  O7_25 
REMARK    4  A    between atoms: C7_9  and  C16_21 
REMARK    5  A    between atoms: C11_14  and  O4_16 
REMARK    6  A    between atoms: O4_16  and  C13_17 
REMARK    7  A    between atoms: O7_25  and  C19_26 
REMARK    8  A    between atoms: C21_29  and  O12_39 
REMARK    9  A    between atoms: C24_32  and  O9_33 
REMARK   10  A    between atoms: O9_33  and  C25_34 
REMARK   11  A    between atoms: O12_39  and  C28_40 
ROOT
HETATM    1  C3  UNL     1       0.932   1.342   1.340  1.00  0.00     0.161 C 
HETATM    2  C4  UNL     1       2.002   0.283   0.908  1.00  0.00     0.059 C 
HETATM    3  C5  UNL     1       1.438  -1.074   0.348  1.00  0.00     0.063 C 
HETATM    4  C6  UNL     1       0.143  -0.937  -0.514  1.00  0.00     0.133 C 
HETATM    5  C7  UNL     1      -1.182  -0.906   0.275  1.00  0.00     0.071 C 
HETATM    6  C8  UNL     1      -1.397   0.275   1.184  1.00  0.00    -0.013 C 
HETATM    7  C9  UNL     1      -0.328   0.850   2.086  1.00  0.00     0.198 C 
HETATM    8  O3  UNL     1       0.002  -0.078   3.100  1.00  0.00    -0.216 OA
HETATM    9  C10 UNL     1      -2.650   0.742   1.080  1.00  0.00    -0.022 C 
HETATM   10  C11 UNL     1      -3.455  -0.059   0.102  1.00  0.00     0.142 C 
HETATM   11  C12 UNL     1      -2.389  -0.824  -0.695  1.00  0.00     0.043 C 
HETATM   12  C15 UNL     1      -3.219   1.920   1.830  1.00  0.00     0.028 C 
HETATM   13  C21 UNL     1       2.508  -1.992  -0.318  1.00  0.00     0.156 C 
HETATM   14  C22 UNL     1       3.807  -1.387  -0.908  1.00  0.00     0.146 C 
HETATM   15  C23 UNL     1       4.170   0.035  -0.447  1.00  0.00     0.062 C 
HETATM   16  C24 UNL     1       2.959   0.920  -0.135  1.00  0.00     0.129 C 
HETATM   17  O11 UNL     1       4.729  -2.299  -0.340  1.00  0.00    -0.351 OA
HETATM   18  C27 UNL     1       3.652  -2.598   0.523  1.00  0.00     0.172 C 
HETATM   19  C30 UNL     1       2.822  -0.018   2.176  1.00  0.00     0.005 C 
ENDROOT
BRANCH   1  20
HETATM   20  O2  UNL     1       0.518   2.129   0.230  1.00  0.00    -0.301 OA
BRANCH  20  21
HETATM   21  C1  UNL     1      -0.125   3.232   0.603  1.00  0.00     0.272 C 
HETATM   22  O1  UNL     1       0.041   3.779   1.670  1.00  0.00    -0.264 OA
HETATM   23  C2  UNL     1      -1.098   3.781  -0.404  1.00  0.00     0.106 C 
ENDBRANCH  20  21
ENDBRANCH   1  20
BRANCH  16  24
HETATM   24  O9  UNL     1       3.434   2.170   0.350  1.00  0.00    -0.304 OA
BRANCH  24  25
HETATM   25  C25 UNL     1       3.289   3.147  -0.543  1.00  0.00     0.272 C 
HETATM   26  O10 UNL     1       3.066   2.957  -1.717  1.00  0.00    -0.264 OA
HETATM   27  C26 UNL     1       3.424   4.541   0.006  1.00  0.00     0.106 C 
ENDBRANCH  24  25
ENDBRANCH  16  24
BRANCH   4  28
HETATM   28  O7  UNL     1       0.242   0.174  -1.395  1.00  0.00    -0.304 OA
BRANCH  28  29
HETATM   29  C19 UNL     1      -0.217  -0.103  -2.611  1.00  0.00     0.272 C 
HETATM   30  C20 UNL     1      -0.131   1.029  -3.600  1.00  0.00     0.106 C 
HETATM   31  O8  UNL     1      -0.676  -1.174  -2.932  1.00  0.00    -0.264 OA
ENDBRANCH  28  29
ENDBRANCH   4  28
BRANCH  13  32
HETATM   32  O12 UNL     1       1.908  -2.996  -1.129  1.00  0.00    -0.302 OA
BRANCH  32  33
HETATM   33  C28 UNL     1       1.818  -2.629  -2.404  1.00  0.00     0.272 C 
HETATM   34  C29 UNL     1       1.549  -3.748  -3.375  1.00  0.00     0.106 C 
HETATM   35  O13 UNL     1       1.939  -1.490  -2.787  1.00  0.00    -0.264 OA
ENDBRANCH  32  33
ENDBRANCH  13  32
BRANCH   5  36
HETATM   36  C16 UNL     1      -1.381  -2.193   1.076  1.00  0.00     0.132 C 
HETATM   37  C17 UNL     1      -2.834  -2.283   1.545  1.00  0.00     0.033 C 
HETATM   38  C18 UNL     1      -0.961  -3.395   0.228  1.00  0.00     0.033 C 
HETATM   39  O6  UNL     1      -0.553  -2.146   2.217  1.00  0.00    -0.226 OA
ENDBRANCH   5  36
BRANCH  10  40
HETATM   40  O4  UNL     1      -4.221   0.779  -0.754  1.00  0.00    -0.300 OA
BRANCH  40  41
HETATM   41  C13 UNL     1      -5.238   1.354  -0.121  1.00  0.00     0.273 C 
HETATM   42  C14 UNL     1      -6.209   0.404   0.527  1.00  0.00     0.106 C 
HETATM   43  O5  UNL     1      -5.400   2.551  -0.053  1.00  0.00    -0.264 OA
ENDBRANCH  40  41
ENDBRANCH  10  40
TORSDOF 11
