REMARK  2 active torsions:
REMARK  status: ('A' for Active; 'I' for Inactive)
REMARK    1  A    between atoms: C12_13  and  O2_16 
REMARK    2  A    between atoms: O2_16  and  C15_17 
ROOT
HETATM    1  C1  UNL     1       4.658   1.157  -0.100  1.00  0.00    -0.023 C 
HETATM    2  C2  UNL     1       3.970   0.114  -0.344  1.00  0.00     0.019 C 
HETATM    3  C3  UNL     1       4.181  -1.208  -0.623  1.00  0.00     0.035 C 
HETATM    4  C4  UNL     1       2.424  -1.707  -0.801  1.00  0.00     0.007 C 
HETATM    5  C5  UNL     1       1.039  -0.834   0.019  1.00  0.00     0.021 C 
HETATM    6  C6  UNL     1       0.632   0.928  -0.351  1.00  0.00     0.006 C 
HETATM    7  C7  UNL     1       1.826   2.318  -0.539  1.00  0.00     0.037 C 
HETATM    8  C8  UNL     1       3.521   2.530   0.138  1.00  0.00     0.170 C 
HETATM    9  O1  UNL     1       4.082   3.729  -0.398  1.00  0.00    -0.219 OA
HETATM   10  C9  UNL     1      -0.041   1.020  -1.770  1.00  0.00     0.000 C 
HETATM   11  C10 UNL     1      -0.382   1.296   0.772  1.00  0.00     0.003 C 
HETATM   12  C11 UNL     1      -1.445   0.177   1.158  1.00  0.00     0.035 C 
HETATM   13  C12 UNL     1      -1.625  -1.026   0.176  1.00  0.00     0.143 C 
HETATM   14  C13 UNL     1      -0.212  -1.693   0.007  1.00  0.00    -0.017 C 
HETATM   15  C14 UNL     1      -0.035  -2.991   0.254  1.00  0.00    -0.007 C 
HETATM   16  C17 UNL     1       5.260  -1.690   0.383  1.00  0.00     0.156 C 
HETATM   17  C18 UNL     1       6.505  -0.617   0.045  1.00  0.00     0.054 C 
HETATM   18  C19 UNL     1       5.970   0.944   0.139  1.00  0.00    -0.047 C 
HETATM   19  C20 UNL     1       6.902   2.044   0.562  1.00  0.00     0.026 C 
HETATM   20  O4  UNL     1       5.622  -3.047   0.119  1.00  0.00    -0.223 OA
HETATM   21  C21 UNL     1       3.470   0.254   1.252  1.00  0.00     0.004 C 
HETATM   22  C22 UNL     1       3.471   0.328  -1.900  1.00  0.00     0.004 C 
ENDROOT
BRANCH  13  23
HETATM   23  O2  UNL     1      -2.668  -1.905   0.718  1.00  0.00    -0.300 OA
BRANCH  23  24
HETATM   24  C15 UNL     1      -3.231  -2.925  -0.126  1.00  0.00     0.273 C 
HETATM   25  O3  UNL     1      -4.092  -3.667   0.358  1.00  0.00    -0.264 OA
HETATM   26  C16 UNL     1      -2.869  -3.098  -1.590  1.00  0.00     0.106 C 
ENDBRANCH  23  24
ENDBRANCH  13  23
TORSDOF 2
