REMARK  1 active torsions:
REMARK  status: ('A' for Active; 'I' for Inactive)
REMARK    1  A    between atoms: C10_10  and  O1_13 
ROOT
HETATM    1  C1  UNL     1       3.068  -1.400  -0.750  1.00  0.00     0.119 A 
HETATM    2  C2  UNL     1       3.944  -0.340  -0.994  1.00  0.00     0.119 A 
HETATM    3  C3  UNL     1       3.430   0.979  -1.078  1.00  0.00     0.024 A 
HETATM    4  C4  UNL     1       2.051   1.248  -0.922  1.00  0.00     0.006 A 
HETATM    5  C5  UNL     1       1.156   0.176  -0.664  1.00  0.00    -0.012 A 
HETATM    6  C6  UNL     1       1.686  -1.139  -0.586  1.00  0.00     0.022 A 
HETATM    7  C7  UNL     1      -0.310   0.445  -0.469  1.00  0.00     0.118 C 
HETATM    8  C8  UNL     1      -0.670   0.510   1.047  1.00  0.00     0.234 C 
HETATM    9  C9  UNL     1      -0.982  -0.869   1.643  1.00  0.00     0.068 C 
HETATM   10  C10 UNL     1      -2.160  -1.506   0.881  1.00  0.00     0.139 C 
HETATM   11  C11 UNL     1      -1.982  -1.463  -0.619  1.00  0.00    -0.001 C 
HETATM   12  C12 UNL     1      -1.156  -0.584  -1.223  1.00  0.00    -0.018 C 
HETATM   13  N1  UNL     1      -1.824   1.406   1.207  1.00  0.00     0.143 N 
HETATM   14  C14 UNL     1      -1.986   2.139  -0.043  1.00  0.00     0.309 C 
HETATM   15  C15 UNL     1      -0.713   1.906  -0.859  1.00  0.00     0.260 C 
HETATM   16  O2  UNL     1       0.289   2.838  -0.443  1.00  0.00    -0.326 OA
HETATM   17  C16 UNL     1       1.567   2.649  -1.039  1.00  0.00     0.171 C 
HETATM   18  O3  UNL     1      -1.000   2.068  -2.242  1.00  0.00    -0.193 OA
HETATM   19  C17 UNL     1      -1.746   2.260   2.391  1.00  0.00     0.286 C 
HETATM   20  O4  UNL     1       5.186  -0.814  -1.111  1.00  0.00    -0.300 OA
HETATM   21  C18 UNL     1       5.164  -2.248  -0.936  1.00  0.00     0.304 A 
HETATM   22  O5  UNL     1       3.764  -2.537  -0.715  1.00  0.00    -0.300 OA
ENDROOT
BRANCH  10  23
HETATM   23  O1  UNL     1      -2.307  -2.846   1.307  1.00  0.00    -0.350 OA
HETATM   24  C13 UNL     1      -3.566  -3.393   0.990  1.00  0.00     0.175 C 
ENDBRANCH  10  23
TORSDOF 1
