REMARK  7 active torsions:
REMARK  status: ('A' for Active; 'I' for Inactive)
REMARK    1  A    between atoms: C1_1  and  O3_9 
REMARK    2  A    between atoms: O3_9  and  C7_10 
REMARK    3  A    between atoms: C11_14  and  C12_16 
REMARK    4  A    between atoms: C12_16  and  O5_17 
REMARK    5  A    between atoms: O5_17  and  C13_18 
REMARK    6  A    between atoms: C13_18  and  C14_19 
REMARK    7  A    between atoms: C15_20  and  C16_21 
ROOT
HETATM    1  C7  UNL     1       2.723   1.764  -0.994  1.00  0.00     0.274 C 
HETATM    2  C8  UNL     1       3.115   3.152  -1.543  1.00  0.00     0.241 C 
HETATM    3  C9  UNL     1       2.082   4.225  -1.129  1.00  0.00     0.220 C 
HETATM    4  C10 UNL     1       0.662   3.744  -1.494  1.00  0.00     0.215 C 
HETATM    5  C11 UNL     1       0.391   2.324  -0.945  1.00  0.00     0.181 C 
HETATM    6  O4  UNL     1       1.402   1.437  -1.408  1.00  0.00    -0.326 OA
HETATM    7  O8  UNL     1      -0.301   4.631  -0.951  1.00  0.00    -0.218 OA
HETATM    8  O9  UNL     1       2.363   5.445  -1.797  1.00  0.00    -0.218 OA
HETATM    9  O10 UNL     1       4.395   3.494  -1.043  1.00  0.00    -0.215 OA
ENDROOT
BRANCH   5  10
HETATM   10  C12 UNL     1      -0.953   1.752  -1.414  1.00  0.00     0.184 C 
BRANCH  10  11
HETATM   11  O5  UNL     1      -1.285   0.629  -0.613  1.00  0.00    -0.296 OA
BRANCH  11  12
HETATM   12  C13 UNL     1      -2.467   0.109  -0.934  1.00  0.00     0.296 C 
HETATM   13  O7  UNL     1      -3.068   0.381  -1.947  1.00  0.00    -0.259 OA
BRANCH  12  14
HETATM   14  C14 UNL     1      -3.029  -0.842   0.031  1.00  0.00     0.068 C 
HETATM   15  C15 UNL     1      -4.268  -1.332  -0.133  1.00  0.00     0.005 C 
BRANCH  15  16
HETATM   16  C16 UNL     1      -4.797  -2.297   0.875  1.00  0.00     0.000 A 
HETATM   17  C17 UNL     1      -4.365  -2.227   2.213  1.00  0.00     0.002 A 
HETATM   18  C18 UNL     1      -4.865  -3.135   3.162  1.00  0.00     0.027 A 
HETATM   19  C19 UNL     1      -5.795  -4.119   2.779  1.00  0.00     0.131 A 
HETATM   20  C20 UNL     1      -6.225  -4.188   1.443  1.00  0.00     0.027 A 
HETATM   21  O6  UNL     1      -6.262  -4.971   3.670  1.00  0.00    -0.190 OA
HETATM   22  C21 UNL     1      -5.727  -3.279   0.492  1.00  0.00     0.002 A 
ENDBRANCH  15  16
ENDBRANCH  12  14
ENDBRANCH  11  12
ENDBRANCH  10  11
ENDBRANCH   5  10
BRANCH   1  23
HETATM   23  O3  UNL     1       3.617   0.775  -1.488  1.00  0.00    -0.303 OA
BRANCH  23  24
HETATM   24  C1  UNL     1       3.910  -0.240  -0.701  1.00  0.00     0.101 A 
HETATM   25  C2  UNL     1       2.973  -0.693   0.242  1.00  0.00     0.052 A 
HETATM   26  C3  UNL     1       3.279  -1.777   1.084  1.00  0.00     0.135 A 
HETATM   27  C4  UNL     1       4.533  -2.406   0.979  1.00  0.00     0.055 A 
HETATM   28  O2  UNL     1       2.400  -2.201   1.967  1.00  0.00    -0.190 OA
HETATM   29  C5  UNL     1       5.475  -1.957   0.037  1.00  0.00     0.135 A 
HETATM   30  C6  UNL     1       5.160  -0.873  -0.801  1.00  0.00     0.052 A 
HETATM   31  O1  UNL     1       6.649  -2.549  -0.061  1.00  0.00    -0.190 OA
ENDBRANCH  23  24
ENDBRANCH   1  23
TORSDOF 7
