REMARK  5 active torsions:
REMARK  status: ('A' for Active; 'I' for Inactive)
REMARK    1  A    between atoms: C1_1  and  O6_22 
REMARK    2  A    between atoms: C2_2  and  O5_20 
REMARK    3  A    between atoms: C8_9  and  C10_12 
REMARK    4  A    between atoms: O6_22  and  C17_23 
REMARK    5  A    between atoms: C21_27  and  C22_29 
ROOT
HETATM    1  C1  UNL     1       1.627  -0.203   0.838  1.00  0.00     0.123 A 
HETATM    2  C2  UNL     1       1.775  -1.611   0.838  1.00  0.00     0.142 A 
HETATM    3  C3  UNL     1       0.631  -2.447   0.863  1.00  0.00     0.160 A 
HETATM    4  C4  UNL     1      -0.662  -1.863   0.891  1.00  0.00     0.089 A 
HETATM    5  C5  UNL     1      -0.810  -0.451   0.895  1.00  0.00     0.107 A 
HETATM    6  C6  UNL     1       0.336   0.375   0.865  1.00  0.00     0.051 A 
HETATM    7  O1  UNL     1      -2.041   0.107   0.924  1.00  0.00    -0.305 OA
HETATM    8  C7  UNL     1      -3.178  -0.617   0.953  1.00  0.00     0.126 A 
HETATM    9  C8  UNL     1      -3.176  -1.969   0.951  1.00  0.00     0.064 A 
HETATM   10  C9  UNL     1      -1.889  -2.713   0.918  1.00  0.00     0.202 A 
HETATM   11  O2  UNL     1      -1.934  -3.922   0.914  1.00  0.00    -0.286 OA
HETATM   12  O4  UNL     1       0.785  -3.779   0.863  1.00  0.00    -0.188 OA
ENDROOT
BRANCH   1  13
HETATM   13  O6  UNL     1       2.711   0.586   0.811  1.00  0.00    -0.301 OA
BRANCH  13  14
HETATM   14  C17 UNL     1       2.555   1.916   0.338  1.00  0.00     0.274 C 
HETATM   15  C18 UNL     1       3.930   2.617   0.273  1.00  0.00     0.241 C 
HETATM   16  C19 UNL     1       3.809   4.022  -0.361  1.00  0.00     0.220 C 
HETATM   17  O11 UNL     1       4.445   2.725   1.588  1.00  0.00    -0.215 OA
HETATM   18  C20 UNL     1       3.051   3.918  -1.703  1.00  0.00     0.215 C 
HETATM   19  O10 UNL     1       5.102   4.563  -0.578  1.00  0.00    -0.218 OA
HETATM   20  C21 UNL     1       1.719   3.152  -1.541  1.00  0.00     0.184 C 
HETATM   21  O9  UNL     1       2.774   5.215  -2.199  1.00  0.00    -0.218 OA
HETATM   22  O7  UNL     1       1.973   1.879  -0.959  1.00  0.00    -0.326 OA
BRANCH  20  23
HETATM   23  C22 UNL     1       1.012   2.899  -2.877  1.00  0.00     0.214 C 
HETATM   24  O8  UNL     1       1.902   2.203  -3.723  1.00  0.00    -0.218 OA
ENDBRANCH  20  23
ENDBRANCH  13  14
ENDBRANCH   1  13
BRANCH   2  25
HETATM   25  O5  UNL     1       3.000  -2.156   0.814  1.00  0.00    -0.324 OA
HETATM   26  C16 UNL     1       3.979  -1.559  -0.023  1.00  0.00     0.182 C 
ENDBRANCH   2  25
BRANCH   9  27
HETATM   27  C10 UNL     1      -4.479  -2.709   0.982  1.00  0.00     0.005 A 
HETATM   28  C11 UNL     1      -4.598  -3.895   1.729  1.00  0.00     0.002 A 
HETATM   29  C12 UNL     1      -5.820  -4.586   1.758  1.00  0.00     0.027 A 
HETATM   30  C13 UNL     1      -6.928  -4.100   1.041  1.00  0.00     0.131 A 
HETATM   31  C14 UNL     1      -6.805  -2.914   0.295  1.00  0.00     0.027 A 
HETATM   32  O3  UNL     1      -8.074  -4.750   1.068  1.00  0.00    -0.190 OA
HETATM   33  C15 UNL     1      -5.584  -2.219   0.264  1.00  0.00     0.002 A 
ENDBRANCH   9  27
TORSDOF 5
