REMARK  6 active torsions:
REMARK  status: ('A' for Active; 'I' for Inactive)
REMARK    1  A    between atoms: C18_26  and  O9_27 
REMARK    2  A    between atoms: O9_27  and  C19_28 
REMARK    3  A    between atoms: C19_28  and  C20_30 
REMARK    4  A    between atoms: C26_39  and  O16_43 
REMARK    5  A    between atoms: O16_43  and  C28_44 
REMARK    6  A    between atoms: C28_44  and  C29_45 
ROOT
HETATM    1  C1  UNL     1       2.943   2.414   1.856  1.00  0.00     0.181 A 
HETATM    2  C2  UNL     1       3.293   1.191   1.256  1.00  0.00     0.158 A 
HETATM    3  C3  UNL     1       2.967   0.934  -0.096  1.00  0.00     0.035 A 
HETATM    4  C4  UNL     1       2.215   1.922  -0.822  1.00  0.00     0.067 A 
HETATM    5  C5  UNL     1       1.914   3.150  -0.215  1.00  0.00     0.035 A 
HETATM    6  C6  UNL     1       2.264   3.395   1.119  1.00  0.00     0.158 A 
HETATM    7  O1  UNL     1       1.951   4.547   1.678  1.00  0.00    -0.188 OA
HETATM    8  C7  UNL     1       1.742   1.668  -2.225  1.00  0.00     0.296 C 
HETATM    9  O2  UNL     1       2.438   1.060  -3.008  1.00  0.00    -0.259 OA
HETATM   10  O3  UNL     1       0.559   2.039  -2.762  1.00  0.00    -0.296 OA
HETATM   11  C8  UNL     1      -0.559   2.559  -2.014  1.00  0.00     0.184 C 
HETATM   12  C9  UNL     1      -1.012   1.689  -0.807  1.00  0.00     0.178 C 
HETATM   13  C10 UNL     1      -0.887   0.162  -1.029  1.00  0.00     0.184 C 
HETATM   14  O4  UNL     1       0.437  -0.186  -0.613  1.00  0.00    -0.296 OA
HETATM   15  C11 UNL     1       1.051  -1.229  -1.184  1.00  0.00     0.296 C 
HETATM   16  C12 UNL     1       2.545  -1.354  -1.226  1.00  0.00     0.067 A 
HETATM   17  C13 UNL     1       3.434  -0.338  -0.717  1.00  0.00     0.035 A 
HETATM   18  C14 UNL     1       4.828  -0.559  -0.803  1.00  0.00     0.158 A 
HETATM   19  C15 UNL     1       5.338  -1.740  -1.365  1.00  0.00     0.181 A 
HETATM   20  C16 UNL     1       4.467  -2.719  -1.863  1.00  0.00     0.158 A 
HETATM   21  C17 UNL     1       3.082  -2.522  -1.795  1.00  0.00     0.035 A 
HETATM   22  O5  UNL     1       4.947  -3.824  -2.398  1.00  0.00    -0.188 OA
HETATM   23  O6  UNL     1       6.641  -1.932  -1.424  1.00  0.00    -0.186 OA
HETATM   24  O7  UNL     1       5.678   0.350  -0.359  1.00  0.00    -0.188 OA
HETATM   25  O8  UNL     1       0.338  -2.076  -1.676  1.00  0.00    -0.259 OA
HETATM   26  C18 UNL     1      -1.916  -0.668  -0.228  1.00  0.00     0.188 C 
HETATM   27  C26 UNL     1      -2.334   0.080   1.043  1.00  0.00     0.214 C 
HETATM   28  C27 UNL     1      -2.840   1.518   0.744  1.00  0.00     0.300 C 
HETATM   29  O14 UNL     1      -2.361   2.014  -0.504  1.00  0.00    -0.324 OA
HETATM   30  O15 UNL     1      -4.252   1.535   0.717  1.00  0.00    -0.187 OA
HETATM   31  O21 UNL     1       3.932   0.287   1.975  1.00  0.00    -0.188 OA
HETATM   32  O22 UNL     1       3.260   2.643   3.115  1.00  0.00    -0.186 OA
ENDROOT
BRANCH  26  33
HETATM   33  O9  UNL     1      -3.068  -0.881  -1.033  1.00  0.00    -0.296 OA
BRANCH  33  34
HETATM   34  C19 UNL     1      -2.912  -1.891  -1.885  1.00  0.00     0.296 C 
HETATM   35  O10 UNL     1      -2.043  -2.725  -1.787  1.00  0.00    -0.259 OA
BRANCH  34  36
HETATM   36  C20 UNL     1      -3.902  -1.940  -3.002  1.00  0.00     0.067 A 
HETATM   37  C21 UNL     1      -3.832  -2.965  -3.961  1.00  0.00     0.035 A 
HETATM   38  C22 UNL     1      -4.764  -3.012  -5.014  1.00  0.00     0.158 A 
HETATM   39  C23 UNL     1      -5.768  -2.031  -5.107  1.00  0.00     0.181 A 
HETATM   40  O13 UNL     1      -4.692  -3.977  -5.910  1.00  0.00    -0.188 OA
HETATM   41  C24 UNL     1      -5.840  -1.004  -4.148  1.00  0.00     0.158 A 
HETATM   42  O12 UNL     1      -6.641  -2.074  -6.094  1.00  0.00    -0.186 OA
HETATM   43  C25 UNL     1      -4.906  -0.959  -3.098  1.00  0.00     0.035 A 
HETATM   44  O11 UNL     1      -6.777  -0.082  -4.232  1.00  0.00    -0.188 OA
ENDBRANCH  34  36
ENDBRANCH  33  34
ENDBRANCH  26  33
BRANCH  27  45
HETATM   45  O16 UNL     1      -1.197   0.170   1.895  1.00  0.00    -0.293 OA
BRANCH  45  46
HETATM   46  C28 UNL     1      -1.527   0.453   3.152  1.00  0.00     0.296 C 
HETATM   47  O20 UNL     1      -2.615   0.859   3.486  1.00  0.00    -0.259 OA
BRANCH  46  48
HETATM   48  C29 UNL     1      -0.445   0.234   4.158  1.00  0.00     0.067 A 
HETATM   49  C30 UNL     1       0.738  -0.430   3.789  1.00  0.00     0.035 A 
HETATM   50  C31 UNL     1       1.756  -0.637   4.735  1.00  0.00     0.158 A 
HETATM   51  C32 UNL     1       1.592  -0.180   6.055  1.00  0.00     0.181 A 
HETATM   52  O19 UNL     1       2.863  -1.260   4.381  1.00  0.00    -0.188 OA
HETATM   53  C33 UNL     1       0.408   0.484   6.428  1.00  0.00     0.158 A 
HETATM   54  O18 UNL     1       2.547  -0.373   6.944  1.00  0.00    -0.186 OA
HETATM   55  C34 UNL     1      -0.607   0.691   5.479  1.00  0.00     0.035 A 
HETATM   56  O17 UNL     1       0.250   0.916   7.662  1.00  0.00    -0.188 OA
ENDBRANCH  46  48
ENDBRANCH  45  46
ENDBRANCH  27  45
TORSDOF 6
