REMARK  2 active torsions:
REMARK  status: ('A' for Active; 'I' for Inactive)
REMARK    1  A    between atoms: C19_23  and  O6_28 
REMARK    2  A    between atoms: C20_24  and  O5_26 
ROOT
HETATM    1  C1  UNL     1      -3.959  -0.668  -0.219  1.00  0.00     0.096 A 
HETATM    2  C2  UNL     1      -3.436  -1.980  -0.238  1.00  0.00     0.024 A 
HETATM    3  C3  UNL     1      -2.037  -2.191  -0.231  1.00  0.00     0.007 A 
HETATM    4  C4  UNL     1      -1.154  -1.084  -0.207  1.00  0.00     0.060 A 
HETATM    5  C5  UNL     1      -1.672   0.242  -0.139  1.00  0.00     0.099 A 
HETATM    6  C6  UNL     1      -3.074   0.439  -0.174  1.00  0.00     0.044 A 
HETATM    7  C7  UNL     1      -3.650   1.807  -0.174  1.00  0.00     0.002 C 
HETATM    8  C8  UNL     1      -4.982   1.967  -0.072  1.00  0.00     0.001 C 
HETATM    9  C9  UNL     1      -5.897   0.770   0.133  1.00  0.00     0.117 C 
HETATM   10  O1  UNL     1      -5.295  -0.480  -0.256  1.00  0.00    -0.332 OA
HETATM   11  C10 UNL     1      -6.242   0.674   1.621  1.00  0.00     0.035 C 
HETATM   12  C11 UNL     1      -7.176   0.938  -0.690  1.00  0.00     0.035 C 
HETATM   13  O2  UNL     1      -0.838   1.299  -0.037  1.00  0.00    -0.327 OA
HETATM   14  C12 UNL     1       0.520   1.080   0.359  1.00  0.00     0.190 C 
HETATM   15  C13 UNL     1       1.170  -0.037  -0.498  1.00  0.00     0.229 C 
HETATM   16  C14 UNL     1       0.328  -1.299  -0.264  1.00  0.00     0.209 C 
HETATM   17  O3  UNL     1       0.875  -2.373  -0.145  1.00  0.00    -0.288 OA
HETATM   18  C15 UNL     1       2.647  -0.111  -0.221  1.00  0.00     0.039 A 
HETATM   19  C16 UNL     1       3.305   0.975   0.441  1.00  0.00     0.095 A 
HETATM   20  O4  UNL     1       2.650   2.104   0.797  1.00  0.00    -0.328 OA
HETATM   21  C17 UNL     1       1.332   2.373   0.309  1.00  0.00     0.182 C 
HETATM   22  C18 UNL     1       4.682   0.889   0.748  1.00  0.00     0.050 A 
HETATM   23  C19 UNL     1       5.432  -0.248   0.371  1.00  0.00     0.118 A 
HETATM   24  C20 UNL     1       4.805  -1.305  -0.324  1.00  0.00     0.116 A 
HETATM   25  C21 UNL     1       3.424  -1.232  -0.625  1.00  0.00     0.027 A 
HETATM   26  O7  UNL     1       1.031   0.316  -1.865  1.00  0.00    -0.211 OA
ENDROOT
BRANCH  24  27
HETATM   27  O5  UNL     1       5.514  -2.377  -0.703  1.00  0.00    -0.326 OA
HETATM   28  C22 UNL     1       4.832  -3.424  -1.377  1.00  0.00     0.181 C 
ENDBRANCH  24  27
BRANCH  23  29
HETATM   29  O6  UNL     1       6.736  -0.318   0.672  1.00  0.00    -0.326 OA
HETATM   30  C23 UNL     1       7.326   0.785   1.344  1.00  0.00     0.181 C 
ENDBRANCH  23  29
TORSDOF 2
