REMARK  7 active torsions:
REMARK  status: ('A' for Active; 'I' for Inactive)
REMARK    1  A    between atoms: C3_4  and  O1_9 
REMARK    2  A    between atoms: O1_9  and  C8_10 
REMARK    3  A    between atoms: C8_10  and  C9_11 
REMARK    4  A    between atoms: C9_11  and  C28_33 
REMARK    5  A    between atoms: C12_14  and  C19_21 
REMARK    6  A    between atoms: C19_21  and  O2_22 
REMARK    7  A    between atoms: O2_22  and  C20_23 
ROOT
HETATM    1  C9  UNL     1       0.158  -0.695   1.439  1.00  0.00     0.115 C 
HETATM    2  C10 UNL     1      -1.109   0.109   1.057  1.00  0.00     0.018 C 
HETATM    3  C11 UNL     1      -1.133   1.484   1.729  1.00  0.00     0.015 C 
HETATM    4  C12 UNL     1       0.082   2.322   1.295  1.00  0.00     0.108 C 
HETATM    5  C13 UNL     1       1.367   1.566   1.338  1.00  0.00    -0.016 A 
HETATM    6  C14 UNL     1       1.410   0.135   1.389  1.00  0.00    -0.013 A 
HETATM    7  C15 UNL     1       2.680  -0.512   1.404  1.00  0.00    -0.004 A 
HETATM    8  C16 UNL     1       3.877   0.236   1.377  1.00  0.00    -0.000 A 
HETATM    9  C17 UNL     1       3.830   1.645   1.336  1.00  0.00    -0.000 A 
HETATM   10  C18 UNL     1       2.582   2.303   1.318  1.00  0.00    -0.004 A 
ENDROOT
BRANCH   1  11
HETATM   11  C8  UNL     1       0.232  -1.877   0.496  1.00  0.00     0.279 C 
HETATM   12  O4  UNL     1       0.777  -1.781  -0.578  1.00  0.00    -0.264 OA
BRANCH  11  13
HETATM   13  O1  UNL     1      -0.338  -2.992   0.941  1.00  0.00    -0.304 OA
BRANCH  13  14
HETATM   14  C3  UNL     1      -0.240  -4.059   0.008  1.00  0.00     0.128 C 
HETATM   15  C2  UNL     1      -1.229  -3.811  -1.152  1.00  0.00     0.064 C 
HETATM   16  C1  UNL     1      -2.649  -4.305  -0.812  1.00  0.00     0.222 C 
HETATM   17  N1  UNL     1      -2.574  -5.727  -0.496  1.00  0.00     0.135 N 
HETATM   18  C7  UNL     1      -3.195  -3.633   0.453  1.00  0.00     0.035 C 
HETATM   19  C5  UNL     1      -2.010  -5.697   0.850  1.00  0.00     0.222 C 
HETATM   20  C34 UNL     1      -3.881  -6.381  -0.543  1.00  0.00     0.285 C 
HETATM   21  C4  UNL     1      -0.502  -5.397   0.732  1.00  0.00     0.064 C 
HETATM   22  C6  UNL     1      -2.758  -4.578   1.584  1.00  0.00     0.035 C 
ENDBRANCH  13  14
ENDBRANCH  11  13
ENDBRANCH   1  11
BRANCH   1  23
HETATM   23  C28 UNL     1       0.019  -1.209   2.836  1.00  0.00    -0.010 A 
HETATM   24  C29 UNL     1       1.029  -2.012   3.395  1.00  0.00    -0.004 A 
HETATM   25  C30 UNL     1       0.900  -2.494   4.709  1.00  0.00    -0.000 A 
HETATM   26  C31 UNL     1      -0.240  -2.174   5.465  1.00  0.00    -0.000 A 
HETATM   27  C32 UNL     1      -1.250  -1.371   4.908  1.00  0.00    -0.000 A 
HETATM   28  C33 UNL     1      -1.121  -0.889   3.594  1.00  0.00    -0.004 A 
ENDBRANCH   1  23
BRANCH   4  29
HETATM   29  C19 UNL     1      -0.143   2.908  -0.078  1.00  0.00     0.275 C 
HETATM   30  O3  UNL     1      -0.975   2.443  -0.824  1.00  0.00    -0.264 OA
BRANCH  29  31
HETATM   31  O2  UNL     1       0.631   3.945  -0.387  1.00  0.00    -0.304 OA
BRANCH  31  32
HETATM   32  C20 UNL     1       0.498   4.334  -1.746  1.00  0.00     0.128 C 
HETATM   33  C21 UNL     1       1.139   3.260  -2.650  1.00  0.00     0.064 C 
HETATM   34  C22 UNL     1       1.420   3.822  -4.061  1.00  0.00     0.222 C 
HETATM   35  N2  UNL     1       2.285   4.992  -3.986  1.00  0.00     0.135 N 
HETATM   36  C26 UNL     1       0.137   4.373  -4.693  1.00  0.00     0.035 C 
HETATM   37  C23 UNL     1       1.398   6.010  -3.434  1.00  0.00     0.222 C 
HETATM   38  C27 UNL     1       3.553   4.803  -3.285  1.00  0.00     0.285 C 
HETATM   39  C24 UNL     1       1.117   5.734  -1.939  1.00  0.00     0.064 C 
HETATM   40  C25 UNL     1       0.119   5.854  -4.264  1.00  0.00     0.035 C 
ENDBRANCH  31  32
ENDBRANCH  29  31
ENDBRANCH   4  29
TORSDOF 7
