REMARK  1 active torsions:
REMARK  status: ('A' for Active; 'I' for Inactive)
REMARK    1  A    between atoms: C5_5  and  C8_8 
ROOT
HETATM    1  C1  UNL     1       3.701  -0.832  -0.273  1.00  0.00     0.026 C 
HETATM    2  C2  UNL     1       2.277  -0.393  -0.055  1.00  0.00    -0.044 C 
HETATM    3  C3  UNL     1       1.190  -1.442   0.033  1.00  0.00     0.026 C 
HETATM    4  C4  UNL     1      -0.172  -0.918  -0.469  1.00  0.00     0.026 C 
HETATM    5  C5  UNL     1      -0.459   0.490   0.010  1.00  0.00    -0.044 C 
HETATM    6  C6  UNL     1       0.561   1.344   0.234  1.00  0.00    -0.009 C 
HETATM    7  C7  UNL     1       1.961   0.914   0.064  1.00  0.00    -0.009 C 
ENDROOT
BRANCH   5   8
HETATM    8  C8  UNL     1      -1.891   0.912   0.223  1.00  0.00     0.018 C 
HETATM    9  C9  UNL     1      -2.539   0.197   1.408  1.00  0.00     0.004 C 
HETATM   10  C10 UNL     1      -2.725   0.812  -1.055  1.00  0.00     0.004 C 
ENDBRANCH   5   8
TORSDOF 1
