REMARK  3 active torsions:
REMARK  status: ('A' for Active; 'I' for Inactive)
REMARK    1  A    between atoms: C5_5  and  C7_7 
REMARK    2  A    between atoms: C7_7  and  O1_10 
REMARK    3  A    between atoms: O1_10  and  C10_11 
ROOT
HETATM    1  C1  UNL     1      -1.125  -2.309  -0.283  1.00  0.00    -0.035 C 
HETATM    2  C2  UNL     1      -2.338  -1.752  -0.477  1.00  0.00    -0.048 C 
HETATM    3  C3  UNL     1      -2.519  -0.262  -0.684  1.00  0.00     0.022 C 
HETATM    4  C4  UNL     1      -1.299   0.570  -0.262  1.00  0.00     0.007 C 
HETATM    5  C5  UNL     1      -0.002  -0.063  -0.781  1.00  0.00     0.030 C 
HETATM    6  C6  UNL     1       0.147  -1.488  -0.219  1.00  0.00     0.028 C 
HETATM    7  C12 UNL     1      -3.572  -2.615  -0.496  1.00  0.00     0.026 C 
ENDROOT
BRANCH   5   8
HETATM    8  C7  UNL     1       1.219   0.799  -0.445  1.00  0.00     0.102 C 
HETATM    9  C8  UNL     1       2.537   0.131  -0.838  1.00  0.00     0.030 C 
HETATM   10  C9  UNL     1       1.100   2.226  -0.979  1.00  0.00     0.030 C 
BRANCH   8  11
HETATM   11  O1  UNL     1       1.098   0.810   0.969  1.00  0.00    -0.307 OA
BRANCH  11  12
HETATM   12  C10 UNL     1       2.070   1.504   1.555  1.00  0.00     0.272 C 
HETATM   13  C11 UNL     1       2.045   1.496   3.061  1.00  0.00     0.106 C 
HETATM   14  O2  UNL     1       2.924   2.107   0.949  1.00  0.00    -0.264 OA
ENDBRANCH  11  12
ENDBRANCH   8  11
ENDBRANCH   5   8
TORSDOF 3
