REMARK  1 active torsions:
REMARK  status: ('A' for Active; 'I' for Inactive)
REMARK    1  A    between atoms: C16_16  and  C25_28 
ROOT
HETATM    1  C1  UNL     1      -5.182   1.131   1.635  1.00  0.00     0.065 C 
HETATM    2  C2  UNL     1      -6.043   0.531   0.541  1.00  0.00     0.150 C 
HETATM    3  C3  UNL     1      -5.471  -0.602  -0.295  1.00  0.00     0.051 C 
HETATM    4  C4  UNL     1      -3.934  -0.684  -0.113  1.00  0.00     0.006 C 
HETATM    5  C5  UNL     1      -3.258   0.709  -0.065  1.00  0.00     0.001 C 
HETATM    6  C6  UNL     1      -3.690   1.340   1.283  1.00  0.00     0.008 C 
HETATM    7  C7  UNL     1      -1.701   0.611  -0.264  1.00  0.00     0.005 C 
HETATM    8  C8  UNL     1      -1.057  -0.760   0.084  1.00  0.00     0.004 C 
HETATM    9  C9  UNL     1      -1.816  -1.949  -0.592  1.00  0.00     0.000 C 
HETATM   10  C10 UNL     1      -3.221  -1.603  -1.106  1.00  0.00     0.000 C 
HETATM   11  C11 UNL     1       0.451  -0.766  -0.365  1.00  0.00     0.017 C 
HETATM   12  C12 UNL     1       1.203   0.523  -0.031  1.00  0.00    -0.049 C 
HETATM   13  C13 UNL     1       0.563   1.652   0.346  1.00  0.00    -0.035 C 
HETATM   14  C14 UNL     1      -0.938   1.756   0.435  1.00  0.00     0.025 C 
HETATM   15  C15 UNL     1       2.721   0.479  -0.182  1.00  0.00     0.025 C 
HETATM   16  C16 UNL     1       3.330  -0.680   0.654  1.00  0.00     0.093 C 
HETATM   17  C17 UNL     1       2.715  -2.018   0.144  1.00  0.00     0.158 C 
HETATM   18  C18 UNL     1       1.174  -2.014   0.232  1.00  0.00     0.037 C 
HETATM   19  O1  UNL     1       3.098  -2.303  -1.188  1.00  0.00    -0.223 OA
HETATM   20  C19 UNL     1       4.899  -0.605   0.648  1.00  0.00     0.187 C 
HETATM   21  C20 UNL     1       5.516   0.266  -0.473  1.00  0.00     0.182 C 
HETATM   22  C21 UNL     1       4.982   1.731  -0.412  1.00  0.00     0.031 C 
HETATM   23  C22 UNL     1       3.494   1.795   0.037  1.00  0.00     0.007 C 
HETATM   24  C23 UNL     1       5.152   2.445  -1.766  1.00  0.00     0.003 C 
HETATM   25  C24 UNL     1       5.822   2.516   0.603  1.00  0.00     0.003 C 
HETATM   26  O2  UNL     1       5.281  -0.324  -1.740  1.00  0.00    -0.221 OA
HETATM   27  O3  UNL     1       5.506  -1.887   0.687  1.00  0.00    -0.221 OA
HETATM   28  C26 UNL     1       0.539  -0.824  -1.902  1.00  0.00     0.004 C 
HETATM   29  C27 UNL     1      -1.170  -0.924   1.613  1.00  0.00     0.000 C 
HETATM   30  C28 UNL     1      -3.787   1.617  -1.190  1.00  0.00     0.000 C 
HETATM   31  C29 UNL     1      -5.844  -0.373  -1.768  1.00  0.00     0.007 C 
HETATM   32  C30 UNL     1      -6.125  -1.908   0.168  1.00  0.00     0.007 C 
HETATM   33  O5  UNL     1      -7.158   0.953   0.340  1.00  0.00    -0.296 OA
ENDROOT
BRANCH  16  34
HETATM   34  C25 UNL     1       2.891  -0.510   2.123  1.00  0.00     0.188 C 
HETATM   35  O4  UNL     1       3.344  -1.629   2.852  1.00  0.00    -0.221 OA
ENDBRANCH  16  34
TORSDOF 1
