REMARK  9 active torsions:
REMARK  status: ('A' for Active; 'I' for Inactive)
REMARK    1  A    between atoms: C2_2  and  C3_3 
REMARK    2  A    between atoms: C3_3  and  C4_4 
REMARK    3  A    between atoms: C4_4  and  C5_5 
REMARK    4  A    between atoms: C5_5  and  C6_6 
REMARK    5  A    between atoms: C6_6  and  C7_7 
REMARK    6  A    between atoms: C7_7  and  C8_8 
REMARK    7  A    between atoms: C8_8  and  C9_9 
REMARK    8  A    between atoms: C9_9  and  C10_10 
REMARK    9  A    between atoms: C10_10  and  C11_11 
ROOT
HETATM    1  C1  UNL     1      -5.144  -2.076  -0.588  1.00  0.00    -0.013 C 
HETATM    2  C2  UNL     1      -3.932  -2.100  -0.588  1.00  0.00    -0.001 C 
HETATM    3  C13 UNL     1      -6.356  -2.049  -0.594  1.00  0.00    -0.077 C 
HETATM    4  C14 UNL     1      -7.826  -2.008  -0.613  1.00  0.00     0.091 C 
ENDROOT
BRANCH   2   5
HETATM    5  C3  UNL     1      -2.720  -2.115  -0.598  1.00  0.00    -0.001 C 
BRANCH   5   6
HETATM    6  C4  UNL     1      -1.508  -2.120  -0.621  1.00  0.00    -0.009 C 
BRANCH   6   7
HETATM    7  C5  UNL     1      -0.296  -2.110  -0.659  1.00  0.00    -0.051 C 
BRANCH   7   8
HETATM    8  C6  UNL     1       1.016  -2.080  -0.722  1.00  0.00     0.045 C 
BRANCH   8   9
HETATM    9  C7  UNL     1       1.693  -0.922  -0.767  1.00  0.00    -0.017 C 
BRANCH   9  10
HETATM   10  C8  UNL     1       1.045   0.442  -0.740  1.00  0.00     0.034 C 
BRANCH  10  11
HETATM   11  C9  UNL     1       2.054   1.584  -0.546  1.00  0.00     0.069 C 
BRANCH  11  12
HETATM   12  C10 UNL     1       2.825   1.539   0.765  1.00  0.00     0.151 C 
HETATM   13  O1  UNL     1       2.561   0.739   1.635  1.00  0.00    -0.296 OA
BRANCH  12  14
HETATM   14  C11 UNL     1       3.937   2.564   0.928  1.00  0.00     0.065 C 
HETATM   15  C12 UNL     1       4.766   2.387   2.206  1.00  0.00     0.008 C 
ENDBRANCH  12  14
ENDBRANCH  11  12
ENDBRANCH  10  11
ENDBRANCH   9  10
ENDBRANCH   8   9
ENDBRANCH   7   8
ENDBRANCH   6   7
ENDBRANCH   5   6
ENDBRANCH   2   5
TORSDOF 9
