REMARK  1 active torsions:
REMARK  status: ('A' for Active; 'I' for Inactive)
REMARK    1  A    between atoms: C2_2  and  C7_7 
ROOT
HETATM    1  C1  UNL     1       1.166  -0.412   0.000  1.00  0.00     0.003 A 
HETATM    2  C2  UNL     1       0.420   0.781   0.000  1.00  0.00     0.042 A 
HETATM    3  C3  UNL     1      -0.986   0.728   0.000  1.00  0.00     0.003 A 
HETATM    4  C4  UNL     1      -1.645  -0.514   0.000  1.00  0.00     0.000 A 
HETATM    5  C5  UNL     1      -0.899  -1.705   0.000  1.00  0.00     0.000 A 
HETATM    6  C6  UNL     1       0.506  -1.654   0.000  1.00  0.00     0.000 A 
ENDROOT
BRANCH   2   7
HETATM    7  C7  UNL     1       1.119   2.100   0.000  1.00  0.00     0.234 C 
HETATM    8  O1  UNL     1       0.494   3.135   0.000  1.00  0.00    -0.283 OA
ENDBRANCH   2   7
TORSDOF 1
