REMARK  0 active torsions:
REMARK  status: ('A' for Active; 'I' for Inactive)
ROOT
HETATM    1  C1  UNL     1      -0.159   1.270  -0.144  1.00  0.00     0.133 C 
HETATM    2  C2  UNL     1      -0.579  -0.196   0.157  1.00  0.00     0.030 C 
HETATM    3  C3  UNL     1       0.658  -1.112  -0.056  1.00  0.00     0.030 C 
HETATM    4  C4  UNL     1       1.911  -0.480   0.471  1.00  0.00    -0.005 A 
HETATM    5  C5  UNL     1       2.043   0.791   0.871  1.00  0.00     0.076 A 
HETATM    6  C6  UNL     1       0.925   1.788   0.813  1.00  0.00     0.082 C 
HETATM    7  O1  UNL     1       3.190   1.027   1.250  1.00  0.00    -0.310 OA
HETATM    8  C7  UNL     1       3.852  -0.004   1.135  1.00  0.00     0.118 A 
HETATM    9  C8  UNL     1       3.127  -1.016   0.641  1.00  0.00     0.001 A 
HETATM   10  C9  UNL     1       3.588  -2.412   0.365  1.00  0.00     0.033 C 
HETATM   11  C10 UNL     1      -1.723  -0.626  -0.810  1.00  0.00     0.003 C 
HETATM   12  C11 UNL     1      -2.904   0.364  -0.802  1.00  0.00     0.000 C 
HETATM   13  C12 UNL     1      -2.446   1.791  -1.124  1.00  0.00     0.003 C 
HETATM   14  C13 UNL     1      -1.347   2.238  -0.154  1.00  0.00     0.031 C 
HETATM   15  C14 UNL     1      -2.254  -2.057  -0.599  1.00  0.00     0.000 C 
HETATM   16  C15 UNL     1      -1.024  -0.359   1.631  1.00  0.00     0.003 C 
HETATM   17  O2  UNL     1       0.423   1.304  -1.425  1.00  0.00    -0.226 OA
ENDROOT
TORSDOF 0
