REMARK  4 active torsions:
REMARK  status: ('A' for Active; 'I' for Inactive)
REMARK    1  A    between atoms: C14_15  and  C17_19 
REMARK    2  A    between atoms: C17_19  and  C18_20 
REMARK    3  A    between atoms: C18_20  and  C19_21 
REMARK    4  A    between atoms: C19_21  and  C20_22 
ROOT
HETATM    1  C1  UNL     1      -4.088   2.788  -1.293  1.00  0.00     0.022 C 
HETATM    2  C2  UNL     1      -3.984   1.292  -1.629  1.00  0.00     0.007 C 
HETATM    3  C3  UNL     1      -2.767   0.684  -0.913  1.00  0.00     0.034 C 
HETATM    4  C4  UNL     1      -1.504   1.331  -1.508  1.00  0.00     0.050 C 
HETATM    5  C5  UNL     1      -1.588   2.808  -1.196  1.00  0.00    -0.030 C 
HETATM    6  C6  UNL     1      -2.752   3.478  -1.143  1.00  0.00    -0.048 C 
HETATM    7  C7  UNL     1      -2.808   4.962  -0.874  1.00  0.00     0.026 C 
HETATM    8  C8  UNL     1      -0.244   0.613  -1.051  1.00  0.00     0.029 A 
HETATM    9  C9  UNL     1      -0.363  -0.552  -0.376  1.00  0.00     0.092 A 
HETATM   10  O1  UNL     1      -1.557  -1.175  -0.117  1.00  0.00    -0.336 OA
HETATM   11  C10 UNL     1      -2.649  -0.843  -0.917  1.00  0.00     0.099 C 
HETATM   12  C11 UNL     1      -2.471  -1.452  -2.313  1.00  0.00     0.030 C 
HETATM   13  C12 UNL     1      -3.869  -1.502  -0.253  1.00  0.00     0.030 C 
HETATM   14  C13 UNL     1       0.762  -1.181   0.011  1.00  0.00     0.020 A 
HETATM   15  C14 UNL     1       1.990  -0.694  -0.220  1.00  0.00    -0.018 A 
HETATM   16  C15 UNL     1       2.071   0.446  -0.920  1.00  0.00     0.023 A 
HETATM   17  C16 UNL     1       0.980   1.101  -1.349  1.00  0.00     0.129 A 
HETATM   18  O2  UNL     1       1.148   2.226  -2.097  1.00  0.00    -0.190 OA
ENDROOT
BRANCH  15  19
HETATM   19  C17 UNL     1       3.224  -1.432   0.257  1.00  0.00     0.026 C 
BRANCH  19  20
HETATM   20  C18 UNL     1       3.282  -1.519   1.791  1.00  0.00     0.005 C 
BRANCH  20  21
HETATM   21  C19 UNL     1       4.550  -2.234   2.285  1.00  0.00     0.000 C 
BRANCH  21  22
HETATM   22  C20 UNL     1       4.550  -2.405   3.813  1.00  0.00     0.000 C 
HETATM   23  C21 UNL     1       5.820  -3.105   4.312  1.00  0.00     0.000 C 
ENDBRANCH  21  22
ENDBRANCH  20  21
ENDBRANCH  19  20
ENDBRANCH  15  19
TORSDOF 4
