REMARK  3 active torsions:
REMARK  status: ('A' for Active; 'I' for Inactive)
REMARK    1  A    between atoms: C7_9  and  C11_15 
REMARK    2  A    between atoms: C8_10  and  O4_13 
REMARK    3  A    between atoms: C14_18  and  O5_21 
ROOT
HETATM    1  C1  UNL     1      -4.405   2.092  -0.076  1.00  0.00     0.160 A 
HETATM    2  C2  UNL     1      -3.915   3.334   0.035  1.00  0.00     0.057 A 
HETATM    3  C3  UNL     1      -2.598   3.591   0.101  1.00  0.00     0.138 A 
HETATM    4  C4  UNL     1      -1.744   2.544   0.056  1.00  0.00     0.091 A 
HETATM    5  C5  UNL     1      -2.212   1.292  -0.065  1.00  0.00     0.133 A 
HETATM    6  C6  UNL     1      -3.538   1.069  -0.130  1.00  0.00     0.179 A 
HETATM    7  O1  UNL     1      -4.006  -0.203  -0.249  1.00  0.00    -0.186 OA
HETATM    8  O2  UNL     1      -1.388   0.216  -0.139  1.00  0.00    -0.303 OA
HETATM    9  C7  UNL     1      -0.044   0.379   0.065  1.00  0.00     0.125 C 
HETATM   10  C8  UNL     1       0.455   1.641   0.133  1.00  0.00     0.156 C 
HETATM   11  C9  UNL     1      -0.396   2.715   0.131  1.00  0.00     0.224 C 
HETATM   12  O3  UNL     1       0.080   3.827   0.222  1.00  0.00    -0.284 OA
HETATM   13  O7  UNL     1      -2.206   4.891   0.216  1.00  0.00    -0.190 OA
HETATM   14  O8  UNL     1      -5.742   1.851  -0.140  1.00  0.00    -0.188 OA
ENDROOT
BRANCH   9  15
HETATM   15  C11 UNL     1       0.680  -0.777   0.139  1.00  0.00     0.027 A 
HETATM   16  C12 UNL     1       0.038  -1.954  -0.043  1.00  0.00     0.032 A 
HETATM   17  C13 UNL     1       0.618  -3.166  -0.014  1.00  0.00     0.153 A 
HETATM   18  C14 UNL     1       1.938  -3.283   0.224  1.00  0.00     0.119 A 
HETATM   19  O6  UNL     1      -0.122  -4.290  -0.226  1.00  0.00    -0.188 OA
HETATM   20  C15 UNL     1       2.604  -2.131   0.410  1.00  0.00     0.026 A 
HETATM   21  C16 UNL     1       1.999  -0.933   0.371  1.00  0.00     0.004 A 
BRANCH  18  22
HETATM   22  O5  UNL     1       2.493  -4.539   0.234  1.00  0.00    -0.326 OA
HETATM   23  C17 UNL     1       3.892  -4.666   0.338  1.00  0.00     0.181 C 
ENDBRANCH  18  22
ENDBRANCH   9  15
BRANCH  10  24
HETATM   24  O4  UNL     1       1.771   1.965   0.363  1.00  0.00    -0.323 OA
HETATM   25  C10 UNL     1       2.513   2.232  -0.808  1.00  0.00     0.182 C 
ENDBRANCH  10  24
TORSDOF 3
