REMARK  0 active torsions:
REMARK  status: ('A' for Active; 'I' for Inactive)
ROOT
HETATM    1  C1  UNL     1       3.844   1.774   2.299  1.00  0.00     0.000 A 
HETATM    2  C2  UNL     1       4.811   1.348   1.363  1.00  0.00     0.002 A 
HETATM    3  C3  UNL     1       4.414   0.617   0.219  1.00  0.00     0.017 A 
HETATM    4  C4  UNL     1       3.043   0.303  -0.008  1.00  0.00     0.065 A 
HETATM    5  C5  UNL     1       2.076   0.733   0.951  1.00  0.00     0.038 A 
HETATM    6  C6  UNL     1       2.483   1.467   2.096  1.00  0.00     0.003 A 
HETATM    7  C7  UNL     1       0.623   0.416   0.774  1.00  0.00     0.100 A 
HETATM    8  C8  UNL     1       0.273  -0.320  -0.320  1.00  0.00     0.078 A 
HETATM    9  C9  UNL     1       1.318  -0.703  -1.328  1.00  0.00     0.263 A 
HETATM   10  N1  UNL     1       2.649  -0.385  -1.115  1.00  0.00    -0.294 N 
HETATM   11  C10 UNL     1       3.633  -0.809  -2.139  1.00  0.00     0.134 C 
HETATM   12  O1  UNL     1       1.022  -1.285  -2.346  1.00  0.00    -0.267 OA
HETATM   13  C11 UNL     1      -1.174  -0.721  -0.457  1.00  0.00     0.004 A 
HETATM   14  C12 UNL     1      -2.139  -0.031   0.318  1.00  0.00     0.003 A 
HETATM   15  C13 UNL     1      -1.666   1.061   1.207  1.00  0.00     0.117 C 
HETATM   16  O2  UNL     1      -0.326   0.809   1.652  1.00  0.00    -0.331 OA
HETATM   17  C14 UNL     1      -1.674   2.391   0.442  1.00  0.00     0.035 C 
HETATM   18  C15 UNL     1      -2.520   1.195   2.475  1.00  0.00     0.035 C 
HETATM   19  C16 UNL     1      -3.514  -0.375   0.219  1.00  0.00    -0.002 A 
HETATM   20  C17 UNL     1      -3.926  -1.404  -0.654  1.00  0.00    -0.004 A 
HETATM   21  C18 UNL     1      -2.971  -2.098  -1.430  1.00  0.00    -0.022 A 
HETATM   22  C19 UNL     1      -1.600  -1.766  -1.328  1.00  0.00    -0.004 A 
HETATM   23  C20 UNL     1      -3.402  -3.166  -2.346  1.00  0.00     0.031 C 
ENDROOT
TORSDOF 0
