REMARK  1 active torsions:
REMARK  status: ('A' for Active; 'I' for Inactive)
REMARK    1  A    between atoms: C7_8  and  C10_12 
ROOT
HETATM    1  C1  UNL     1      -3.603   1.614   0.088  1.00  0.00     0.135 A 
HETATM    2  C2  UNL     1      -3.086   2.850   0.029  1.00  0.00     0.055 A 
HETATM    3  C3  UNL     1      -1.765   3.083  -0.037  1.00  0.00     0.138 A 
HETATM    4  C4  UNL     1      -0.927   2.022  -0.044  1.00  0.00     0.087 A 
HETATM    5  C5  UNL     1      -1.404   0.764   0.017  1.00  0.00     0.107 A 
HETATM    6  C6  UNL     1      -2.736   0.591   0.079  1.00  0.00     0.052 A 
HETATM    7  O1  UNL     1      -0.606  -0.340   0.002  1.00  0.00    -0.307 OA
HETATM    8  C7  UNL     1       0.755  -0.193  -0.015  1.00  0.00     0.107 A 
HETATM    9  C8  UNL     1       1.211   1.074  -0.104  1.00  0.00     0.067 A 
HETATM   10  C9  UNL     1       0.421   2.182  -0.117  1.00  0.00     0.202 A 
HETATM   11  O2  UNL     1       0.960   3.265  -0.191  1.00  0.00    -0.286 OA
HETATM   12  O5  UNL     1      -1.346   4.378  -0.095  1.00  0.00    -0.190 OA
HETATM   13  O6  UNL     1      -4.944   1.402   0.147  1.00  0.00    -0.190 OA
ENDROOT
BRANCH   8  14
HETATM   14  C10 UNL     1       1.544  -1.311  -0.014  1.00  0.00     0.074 A 
HETATM   15  C11 UNL     1       0.935  -2.528  -0.115  1.00  0.00     0.135 A 
HETATM   16  C12 UNL     1       1.656  -3.662  -0.164  1.00  0.00     0.028 A 
HETATM   17  O4  UNL     1      -0.415  -2.712  -0.202  1.00  0.00    -0.190 OA
HETATM   18  C13 UNL     1       2.988  -3.657  -0.100  1.00  0.00     0.004 A 
HETATM   19  C14 UNL     1       3.590  -2.474   0.035  1.00  0.00     0.028 A 
HETATM   20  C15 UNL     1       2.902  -1.317   0.076  1.00  0.00     0.135 A 
HETATM   21  O3  UNL     1       3.670  -0.214   0.288  1.00  0.00    -0.190 OA
ENDBRANCH   8  14
TORSDOF 1
