REMARK  4 active torsions:
REMARK  status: ('A' for Active; 'I' for Inactive)
REMARK    1  A    between atoms: C7_9  and  C10_13 
REMARK    2  A    between atoms: C10_13  and  C11_14 
REMARK    3  A    between atoms: C11_14  and  C12_15 
REMARK    4  A    between atoms: C15_18  and  O4_21 
ROOT
HETATM    1  C1  UNL     1      -4.797  -0.860  -0.688  1.00  0.00     0.222 C 
HETATM    2  C2  UNL     1      -5.029  -2.295  -0.252  1.00  0.00     0.220 C 
HETATM    3  C3  UNL     1      -3.779  -3.151  -0.375  1.00  0.00     0.212 C 
HETATM    4  C4  UNL     1      -2.473  -2.401  -0.243  1.00  0.00     0.070 A 
HETATM    5  C5  UNL     1      -2.401  -1.080   0.006  1.00  0.00     0.112 A 
HETATM    6  C6  UNL     1      -3.650  -0.238   0.088  1.00  0.00     0.230 C 
HETATM    7  O1  UNL     1      -4.024  -0.057   1.441  1.00  0.00    -0.214 OA
HETATM    8  O2  UNL     1      -1.230  -0.398   0.162  1.00  0.00    -0.313 OA
HETATM    9  C7  UNL     1      -0.101  -1.140  -0.008  1.00  0.00     0.081 A 
HETATM   10  C8  UNL     1      -0.143  -2.455  -0.277  1.00  0.00     0.062 A 
HETATM   11  C9  UNL     1      -1.324  -3.109  -0.397  1.00  0.00     0.198 A 
HETATM   12  O3  UNL     1      -1.375  -4.292  -0.651  1.00  0.00    -0.287 OA
HETATM   13  O5  UNL     1      -3.780  -3.864  -1.599  1.00  0.00    -0.216 OA
HETATM   14  O6  UNL     1      -5.427  -2.287   1.100  1.00  0.00    -0.217 OA
HETATM   15  O7  UNL     1      -4.487  -0.831  -2.061  1.00  0.00    -0.217 OA
ENDROOT
BRANCH   9  16
HETATM   16  C10 UNL     1       1.229  -0.436   0.181  1.00  0.00     0.056 C 
BRANCH  16  17
HETATM   17  C11 UNL     1       1.233   1.019  -0.314  1.00  0.00     0.033 C 
BRANCH  17  18
HETATM   18  C12 UNL     1       2.512   1.809  -0.096  1.00  0.00    -0.022 A 
HETATM   19  C13 UNL     1       2.520   3.132  -0.337  1.00  0.00    -0.002 A 
HETATM   20  C14 UNL     1       3.625   3.868  -0.150  1.00  0.00     0.024 A 
HETATM   21  C15 UNL     1       4.784   3.338   0.285  1.00  0.00     0.094 A 
HETATM   22  C16 UNL     1       4.766   2.011   0.519  1.00  0.00     0.024 A 
HETATM   23  C17 UNL     1       3.663   1.267   0.336  1.00  0.00    -0.002 A 
BRANCH  21  24
HETATM   24  O4  UNL     1       5.872   4.163   0.449  1.00  0.00    -0.328 OA
HETATM   25  C18 UNL     1       7.093   3.599   0.869  1.00  0.00     0.181 C 
ENDBRANCH  21  24
ENDBRANCH  17  18
ENDBRANCH  16  17
ENDBRANCH   9  16
TORSDOF 4
