REMARK  7 active torsions:
REMARK  status: ('A' for Active; 'I' for Inactive)
REMARK    1  A    between atoms: C1_1  and  O7_35 
REMARK    2  A    between atoms: C2_2  and  O6_33 
REMARK    3  A    between atoms: C3_3  and  O5_26 
REMARK    4  A    between atoms: C13_13  and  O3_21 
REMARK    5  A    between atoms: C14_14  and  O2_19 
REMARK    6  A    between atoms: C15_15  and  O1_17 
REMARK    7  A    between atoms: O5_26  and  C22_27 
ROOT
HETATM    1  C1  UNL     1      -3.328   1.535   1.145  1.00  0.00     0.118 A 
HETATM    2  C2  UNL     1      -2.150   2.236   1.445  1.00  0.00     0.139 A 
HETATM    3  C3  UNL     1      -0.926   1.834   0.885  1.00  0.00     0.124 A 
HETATM    4  C4  UNL     1      -0.869   0.725   0.014  1.00  0.00     0.023 A 
HETATM    5  C5  UNL     1      -2.072   0.010  -0.289  1.00  0.00    -0.018 A 
HETATM    6  C6  UNL     1      -3.285   0.430   0.283  1.00  0.00     0.022 A 
HETATM    7  C7  UNL     1      -2.105  -1.174  -1.201  1.00  0.00     0.029 C 
HETATM    8  C8  UNL     1      -2.039  -2.543  -0.479  1.00  0.00     0.033 C 
HETATM    9  C9  UNL     1      -0.603  -3.043  -0.158  1.00  0.00     0.131 C 
HETATM   10  C10 UNL     1       0.297  -1.990   0.561  1.00  0.00     0.057 C 
HETATM   11  C11 UNL     1       0.967  -0.980  -0.318  1.00  0.00    -0.016 A 
HETATM   12  C12 UNL     1       0.418   0.315  -0.584  1.00  0.00     0.022 A 
HETATM   13  C13 UNL     1       1.121   1.207  -1.420  1.00  0.00     0.118 A 
HETATM   14  C14 UNL     1       2.354   0.832  -1.982  1.00  0.00     0.138 A 
HETATM   15  C15 UNL     1       2.893  -0.437  -1.721  1.00  0.00     0.118 A 
HETATM   16  C16 UNL     1       2.199  -1.334  -0.895  1.00  0.00     0.022 A 
HETATM   17  C20 UNL     1      -0.668  -4.324   0.686  1.00  0.00     0.033 C 
HETATM   18  O4  UNL     1      -0.004  -3.469  -1.371  1.00  0.00    -0.226 OA
HETATM   19  C21 UNL     1      -2.951  -2.600   0.762  1.00  0.00     0.003 C 
ENDROOT
BRANCH   3  20
HETATM   20  O5  UNL     1       0.172   2.504   1.184  1.00  0.00    -0.305 OA
BRANCH  20  21
HETATM   21  C22 UNL     1       1.147   1.856   1.787  1.00  0.00     0.100 A 
HETATM   22  C23 UNL     1       0.863   0.727   2.576  1.00  0.00     0.025 A 
HETATM   23  C24 UNL     1       1.904   0.033   3.219  1.00  0.00     0.002 A 
HETATM   24  C25 UNL     1       3.233   0.469   3.072  1.00  0.00     0.000 A 
HETATM   25  C26 UNL     1       3.520   1.598   2.285  1.00  0.00     0.002 A 
HETATM   26  C27 UNL     1       2.479   2.289   1.643  1.00  0.00     0.025 A 
ENDBRANCH  20  21
ENDBRANCH   3  20
BRANCH   2  27
HETATM   27  O6  UNL     1      -2.193   3.276   2.254  1.00  0.00    -0.324 OA
HETATM   28  C28 UNL     1      -1.512   4.457   1.859  1.00  0.00     0.182 C 
ENDBRANCH   2  27
BRANCH   1  29
HETATM   29  O7  UNL     1      -4.477   1.910   1.672  1.00  0.00    -0.326 OA
HETATM   30  C29 UNL     1      -5.658   1.256   1.232  1.00  0.00     0.181 C 
ENDBRANCH   1  29
BRANCH  13  31
HETATM   31  O3  UNL     1       0.629   2.402  -1.688  1.00  0.00    -0.326 OA
HETATM   32  C19 UNL     1      -0.484   2.484  -2.565  1.00  0.00     0.181 C 
ENDBRANCH  13  31
BRANCH  14  33
HETATM   33  O2  UNL     1       3.006   1.674  -2.760  1.00  0.00    -0.324 OA
HETATM   34  C18 UNL     1       3.656   1.154  -3.910  1.00  0.00     0.182 C 
ENDBRANCH  14  33
BRANCH  15  35
HETATM   35  O1  UNL     1       4.047  -0.789  -2.248  1.00  0.00    -0.326 OA
HETATM   36  C17 UNL     1       4.545  -2.086  -1.955  1.00  0.00     0.181 C 
ENDBRANCH  15  35
TORSDOF 7
