REMARK  4 active torsions:
REMARK  status: ('A' for Active; 'I' for Inactive)
REMARK    1  A    between atoms: C2_2  and  N2_26 
REMARK    2  A    between atoms: C12_12  and  C22_23 
REMARK    3  A    between atoms: C15_15  and  C18_18 
REMARK    4  A    between atoms: C18_18  and  N1_19 
ROOT
HETATM    1  C1  UNL     1      -3.605  -0.332  -0.581  1.00  0.00     0.034 C 
HETATM    2  C2  UNL     1      -4.223  -1.571   0.112  1.00  0.00     0.223 C 
HETATM    3  C3  UNL     1      -3.610  -1.772   1.516  1.00  0.00     0.055 C 
HETATM    4  C4  UNL     1      -2.185  -1.275   1.482  1.00  0.00    -0.047 C 
HETATM    5  C5  UNL     1      -2.031   0.240   1.388  1.00  0.00     0.015 C 
HETATM    6  C6  UNL     1      -3.136   0.740   0.417  1.00  0.00     0.006 C 
HETATM    7  C7  UNL     1      -0.608   0.546   0.851  1.00  0.00     0.004 C 
HETATM    8  C8  UNL     1       0.471  -0.239   1.620  1.00  0.00     0.005 C 
HETATM    9  C9  UNL     1       0.295  -1.723   1.268  1.00  0.00     0.025 C 
HETATM   10  C10 UNL     1      -1.151  -2.131   1.409  1.00  0.00    -0.035 C 
HETATM   11  C11 UNL     1       1.884   0.403   1.568  1.00  0.00     0.003 C 
HETATM   12  C12 UNL     1       2.255   1.264   0.325  1.00  0.00     0.033 C 
HETATM   13  C13 UNL     1       1.043   2.119  -0.125  1.00  0.00     0.003 C 
HETATM   14  C14 UNL     1      -0.185   2.019   0.792  1.00  0.00     0.000 C 
HETATM   15  C15 UNL     1       2.732   0.182  -0.704  1.00  0.00     0.034 C 
HETATM   16  C16 UNL     1       3.413  -0.871   0.210  1.00  0.00     0.002 C 
HETATM   17  C17 UNL     1       3.041  -0.592   1.672  1.00  0.00     0.000 C 
HETATM   18  C23 UNL     1      -2.265   0.897   2.767  1.00  0.00     0.004 C 
ENDROOT
BRANCH  15  19
HETATM   19  C18 UNL     1       3.571   0.615  -1.955  1.00  0.00     0.220 C 
HETATM   20  C21 UNL     1       2.917   1.827  -2.662  1.00  0.00     0.035 C 
BRANCH  19  21
HETATM   21  N1  UNL     1       3.797  -0.462  -2.951  1.00  0.00     0.139 N 
HETATM   22  C19 UNL     1       4.644  -1.551  -2.477  1.00  0.00     0.285 C 
HETATM   23  C20 UNL     1       4.385   0.027  -4.198  1.00  0.00     0.285 C 
ENDBRANCH  19  21
ENDBRANCH  15  19
BRANCH  12  24
HETATM   24  C22 UNL     1       3.432   2.205   0.677  1.00  0.00     0.182 C 
HETATM   25  O1  UNL     1       3.103   3.061   1.754  1.00  0.00    -0.221 OA
ENDBRANCH  12  24
BRANCH   2  26
HETATM   26  N2  UNL     1      -5.687  -1.639   0.142  1.00  0.00     0.140 N 
HETATM   27  C24 UNL     1      -6.255  -1.882  -1.179  1.00  0.00     0.285 C 
HETATM   28  C25 UNL     1      -6.329  -0.476   0.740  1.00  0.00     0.285 C 
ENDBRANCH   2  26
TORSDOF 4
