REMARK  6 active torsions:
REMARK  status: ('A' for Active; 'I' for Inactive)
REMARK    1  A    between atoms: C1_1  and  O7_35 
REMARK    2  A    between atoms: C2_2  and  O6_33 
REMARK    3  A    between atoms: C3_3  and  O5_31 
REMARK    4  A    between atoms: C10_10  and  O4_22 
REMARK    5  A    between atoms: C13_13  and  O1_14 
REMARK    6  A    between atoms: O4_22  and  C19_23 
ROOT
HETATM    1  C1  UNL     1      -1.680  -2.904  -0.236  1.00  0.00     0.118 A 
HETATM    2  C2  UNL     1      -0.475  -2.902   0.484  1.00  0.00     0.138 A 
HETATM    3  C3  UNL     1       0.432  -1.836   0.346  1.00  0.00     0.118 A 
HETATM    4  C4  UNL     1       0.143  -0.764  -0.523  1.00  0.00     0.022 A 
HETATM    5  C5  UNL     1      -1.082  -0.772  -1.262  1.00  0.00    -0.018 A 
HETATM    6  C6  UNL     1      -1.977  -1.842  -1.104  1.00  0.00     0.022 A 
HETATM    7  C7  UNL     1      -1.465   0.316  -2.207  1.00  0.00     0.027 C 
HETATM    8  C8  UNL     1      -2.387   1.371  -1.553  1.00  0.00     0.007 C 
HETATM    9  C9  UNL     1      -1.631   2.527  -0.857  1.00  0.00     0.032 C 
HETATM   10  C10 UNL     1      -0.598   2.103   0.219  1.00  0.00     0.144 C 
HETATM   11  C11 UNL     1       0.740   1.691  -0.316  1.00  0.00     0.009 A 
HETATM   12  C12 UNL     1       1.100   0.355  -0.672  1.00  0.00     0.024 A 
HETATM   13  C13 UNL     1       2.410   0.074  -1.174  1.00  0.00     0.118 A 
HETATM   14  C15 UNL     1       3.356   1.125  -1.291  1.00  0.00     0.141 A 
HETATM   15  C16 UNL     1       3.018   2.432  -0.947  1.00  0.00     0.121 A 
HETATM   16  C17 UNL     1       1.719   2.703  -0.471  1.00  0.00     0.025 A 
HETATM   17  O2  UNL     1       4.069   3.227  -1.150  1.00  0.00    -0.299 OA
HETATM   18  C18 UNL     1       5.172   2.437  -1.645  1.00  0.00     0.304 A 
HETATM   19  O3  UNL     1       4.623   1.103  -1.709  1.00  0.00    -0.298 OA
HETATM   20  C25 UNL     1      -1.039   3.518  -1.875  1.00  0.00     0.003 C 
HETATM   21  C26 UNL     1      -3.387   1.926  -2.576  1.00  0.00     0.000 C 
ENDROOT
BRANCH  10  22
HETATM   22  O4  UNL     1      -1.158   1.125   1.084  1.00  0.00    -0.329 OA
BRANCH  22  23
HETATM   23  C19 UNL     1      -0.812   1.152   2.356  1.00  0.00     0.094 A 
HETATM   24  C20 UNL     1       0.436   1.674   2.736  1.00  0.00     0.024 A 
HETATM   25  C21 UNL     1       0.805   1.703   4.094  1.00  0.00     0.002 A 
HETATM   26  C22 UNL     1      -0.076   1.213   5.072  1.00  0.00     0.000 A 
HETATM   27  C23 UNL     1      -1.324   0.693   4.693  1.00  0.00     0.002 A 
HETATM   28  C24 UNL     1      -1.693   0.662   3.338  1.00  0.00     0.024 A 
ENDBRANCH  22  23
ENDBRANCH  10  22
BRANCH  13  29
HETATM   29  O1  UNL     1       2.654  -1.203  -1.512  1.00  0.00    -0.326 OA
HETATM   30  C14 UNL     1       3.938  -1.524  -2.027  1.00  0.00     0.181 C 
ENDBRANCH  13  29
BRANCH   3  31
HETATM   31  O5  UNL     1       1.551  -1.848   1.045  1.00  0.00    -0.326 OA
HETATM   32  C27 UNL     1       1.457  -2.008   2.453  1.00  0.00     0.181 C 
ENDBRANCH   3  31
BRANCH   2  33
HETATM   33  O6  UNL     1      -0.193  -3.904   1.293  1.00  0.00    -0.324 OA
HETATM   34  C28 UNL     1      -0.336  -5.227   0.793  1.00  0.00     0.182 C 
ENDBRANCH   2  33
BRANCH   1  35
HETATM   35  O7  UNL     1      -2.531  -3.901  -0.104  1.00  0.00    -0.326 OA
HETATM   36  C29 UNL     1      -3.812  -3.768  -0.701  1.00  0.00     0.181 C 
ENDBRANCH   1  35
TORSDOF 6
