REMARK  1 active torsions:
REMARK  status: ('A' for Active; 'I' for Inactive)
REMARK    1  A    between atoms: C4_4  and  C11_21 
ROOT
HETATM    1  C1  UNL     1      -0.586   0.697  -0.639  1.00  0.00     0.175 C 
HETATM    2  C2  UNL     1      -1.481  -0.547  -0.768  1.00  0.00     0.206 C 
HETATM    3  C3  UNL     1      -1.275  -1.453   0.447  1.00  0.00     0.185 C 
HETATM    4  C4  UNL     1       0.157  -1.974   0.535  1.00  0.00     0.209 C 
HETATM    5  C5  UNL     1       1.038  -0.727   0.641  1.00  0.00     0.159 C 
HETATM    6  C6  UNL     1       0.864   0.181  -0.585  1.00  0.00     0.111 C 
HETATM    7  C7  UNL     1       1.859   1.323  -0.772  1.00  0.00     0.277 C 
HETATM    8  N1  UNL     1       1.403   2.258  -1.817  1.00  0.00    -0.056 NA
HETATM    9  C8  UNL     1       0.209   2.347  -2.242  1.00  0.00     0.736 C 
HETATM   10  N2  UNL     1      -0.731   1.638  -1.767  1.00  0.00    -0.085 NA
HETATM   11  N3  UNL     1      -0.043   3.164  -3.174  1.00  0.00    -0.115 NA
HETATM   12  H1  UNL     1       0.796   3.668  -3.467  1.00  0.00     0.206 HD
HETATM   13  O1  UNL     1       2.092   2.057   0.414  1.00  0.00    -0.196 OA
HETATM   14  O2  UNL     1       0.661  -0.060   1.814  1.00  0.00    -0.309 OA
HETATM   15  C9  UNL     1      -0.684   0.360   1.753  1.00  0.00     0.355 C 
HETATM   16  C10 UNL     1      -0.920   1.383   0.687  1.00  0.00     0.258 C 
HETATM   17  O3  UNL     1      -2.255   1.834   0.716  1.00  0.00    -0.213 OA
HETATM   18  O4  UNL     1      -0.857   0.881   3.061  1.00  0.00    -0.162 OA
HETATM   19  O5  UNL     1      -1.545  -0.749   1.628  1.00  0.00    -0.307 OA
HETATM   20  O6  UNL     1       0.467  -2.696  -0.628  1.00  0.00    -0.218 OA
HETATM   21  O8  UNL     1      -2.836  -0.178  -0.857  1.00  0.00    -0.219 OA
ENDROOT
BRANCH   4  22
HETATM   22  C11 UNL     1       0.353  -2.961   1.680  1.00  0.00     0.217 C 
HETATM   23  O7  UNL     1       1.629  -3.549   1.533  1.00  0.00    -0.218 OA
ENDBRANCH   4  22
TORSDOF 1
