REMARK  4 active torsions:
REMARK  status: ('A' for Active; 'I' for Inactive)
REMARK    1  A    between atoms: C6_6  and  O1_7 
REMARK    2  A    between atoms: C26_30  and  O4_31 
REMARK    3  A    between atoms: C28_33  and  O5_35 
REMARK    4  A    between atoms: C36_43  and  O6_44 
ROOT
HETATM    1  C1  UNL     1      -1.987   4.808   0.729  1.00  0.00     0.208 A 
HETATM    2  C2  UNL     1      -1.884   3.372   0.748  1.00  0.00     0.131 A 
HETATM    3  C3  UNL     1      -0.989   2.349   1.008  1.00  0.00     0.122 A 
HETATM    4  C4  UNL     1       0.292   2.644   1.361  1.00  0.00     0.033 A 
HETATM    5  C5  UNL     1       0.358   3.985   1.408  1.00  0.00     0.003 A 
HETATM    6  C6  UNL     1      -0.697   4.785   1.136  1.00  0.00     0.101 A 
HETATM    7  C8  UNL     1       1.694   4.619   1.825  1.00  0.00     0.046 C 
HETATM    8  C9  UNL     1       2.941   3.950   1.232  1.00  0.00     0.081 C 
HETATM    9  N1  UNL     1       2.705   2.577   0.845  1.00  0.00    -0.251 NA
HETATM   10  C10 UNL     1       1.699   1.959   1.700  1.00  0.00     0.038 C 
HETATM   11  C11 UNL     1       2.304   0.553   2.185  1.00  0.00     0.011 C 
HETATM   12  C12 UNL     1       3.024  -0.464   1.238  1.00  0.00     0.003 C 
HETATM   13  C13 UNL     1       2.655  -1.764   1.101  1.00  0.00     0.025 C 
HETATM   14  C14 UNL     1       3.073  -2.607   0.131  1.00  0.00     0.100 C 
HETATM   15  C15 UNL     1       4.128  -2.166  -0.580  1.00  0.00     0.025 C 
HETATM   16  C16 UNL     1       4.658  -0.952  -0.370  1.00  0.00     0.002 C 
HETATM   17  C17 UNL     1       4.096  -0.106   0.506  1.00  0.00     0.000 C 
HETATM   18  O2  UNL     1       2.552  -3.865  -0.120  1.00  0.00    -0.305 OA
HETATM   19  C18 UNL     1       1.176  -4.054  -0.204  1.00  0.00     0.122 A 
HETATM   20  C19 UNL     1       0.436  -3.754  -1.303  1.00  0.00     0.023 A 
HETATM   21  C20 UNL     1      -0.906  -3.905  -1.403  1.00  0.00    -0.015 A 
HETATM   22  C21 UNL     1      -1.805  -3.470  -2.597  1.00  0.00     0.064 C 
HETATM   23  C22 UNL     1      -2.597  -2.169  -2.256  1.00  0.00     0.018 C 
HETATM   24  C23 UNL     1      -1.746  -0.947  -2.053  1.00  0.00     0.007 C 
HETATM   25  C24 UNL     1      -2.214  -0.052  -1.172  1.00  0.00     0.005 C 
HETATM   26  C25 UNL     1      -1.319   0.355  -0.250  1.00  0.00     0.120 C 
HETATM   27  O3  UNL     1      -1.522   1.056   0.922  1.00  0.00    -0.304 OA
HETATM   28  C26 UNL     1      -0.135  -0.268  -0.328  1.00  0.00     0.139 C 
HETATM   29  C28 UNL     1       0.422  -0.646  -1.496  1.00  0.00     0.118 C 
HETATM   30  C29 UNL     1      -0.468  -0.989  -2.431  1.00  0.00     0.027 C 
HETATM   31  C31 UNL     1      -3.712   0.157  -1.173  1.00  0.00     0.046 C 
HETATM   32  C32 UNL     1      -4.551  -0.911  -1.940  1.00  0.00     0.081 C 
HETATM   33  N2  UNL     1      -3.843  -1.793  -2.884  1.00  0.00    -0.254 NA
HETATM   34  C33 UNL     1      -3.639  -1.185  -4.185  1.00  0.00     0.094 C 
HETATM   35  C34 UNL     1      -1.491  -4.485  -0.343  1.00  0.00    -0.002 A 
HETATM   36  C35 UNL     1      -0.785  -4.850   0.736  1.00  0.00     0.026 A 
HETATM   37  C36 UNL     1       0.542  -4.637   0.842  1.00  0.00     0.117 A 
HETATM   38  C38 UNL     1       2.363   2.463  -0.563  1.00  0.00     0.094 C 
HETATM   39  O7  UNL     1      -2.877   2.711   0.423  1.00  0.00    -0.301 OA
HETATM   40  C39 UNL     1      -3.984   3.507   0.481  1.00  0.00     0.300 C 
HETATM   41  O8  UNL     1      -3.155   4.619   0.371  1.00  0.00    -0.316 OA
ENDROOT
BRANCH   6  42
HETATM   42  O1  UNL     1      -0.395   6.143   1.232  1.00  0.00    -0.330 OA
HETATM   43  C7  UNL     1      -0.736   6.730   2.471  1.00  0.00     0.181 C 
ENDBRANCH   6  42
BRANCH  28  44
HETATM   44  O4  UNL     1       0.467  -0.382   0.871  1.00  0.00    -0.324 OA
HETATM   45  C27 UNL     1      -0.272  -1.285   1.712  1.00  0.00     0.182 C 
ENDBRANCH  28  44
BRANCH  29  46
HETATM   46  O5  UNL     1       1.748  -0.944  -1.651  1.00  0.00    -0.326 OA
HETATM   47  C30 UNL     1       2.326  -0.489  -2.859  1.00  0.00     0.181 C 
ENDBRANCH  29  46
BRANCH  37  48
HETATM   48  O6  UNL     1       1.292  -4.994   1.940  1.00  0.00    -0.326 OA
HETATM   49  C37 UNL     1       0.691  -5.744   2.971  1.00  0.00     0.181 C 
ENDBRANCH  37  48
TORSDOF 4
