REMARK  11 active torsions:
REMARK  status: ('A' for Active; 'I' for Inactive)
REMARK    1  A    between atoms: O1_1  and  C1_2 
REMARK    2  A    between atoms: C5_6  and  O8_49 
REMARK    3  A    between atoms: C6_7  and  O3_22 
REMARK    4  A    between atoms: C14_15  and  O2_16 
REMARK    5  A    between atoms: O3_22  and  C19_23 
REMARK    6  A    between atoms: C20_24  and  C21_25 
REMARK    7  A    between atoms: C21_25  and  C22_26 
REMARK    8  A    between atoms: C29_34  and  O5_39 
REMARK    9  A    between atoms: C30_35  and  O4_37 
REMARK   10  A    between atoms: C35_42  and  O7_47 
REMARK   11  A    between atoms: C36_43  and  O6_45 
ROOT
HETATM    1  C19 UNL     1      -0.542   1.045   0.653  1.00  0.00     0.098 A 
HETATM    2  C20 UNL     1      -0.689   2.098   1.485  1.00  0.00     0.005 A 
HETATM    3  C34 UNL     1      -0.167   3.277   1.115  1.00  0.00     0.024 A 
HETATM    4  C35 UNL     1       0.524   3.477  -0.020  1.00  0.00     0.116 A 
HETATM    5  C36 UNL     1       0.608   2.458  -0.900  1.00  0.00     0.118 A 
HETATM    6  C37 UNL     1       0.083   1.277  -0.521  1.00  0.00     0.051 A 
ENDROOT
BRANCH   1   7
HETATM    7  O3  UNL     1      -1.036  -0.185   1.023  1.00  0.00    -0.305 OA
BRANCH   7   8
HETATM    8  C6  UNL     1      -0.747  -1.258   0.220  1.00  0.00     0.122 A 
HETATM    9  C5  UNL     1       0.509  -1.742   0.100  1.00  0.00     0.117 A 
HETATM   10  C4  UNL     1       0.701  -2.746  -0.779  1.00  0.00     0.026 A 
HETATM   11  C3  UNL     1      -0.256  -3.334  -1.527  1.00  0.00    -0.000 A 
HETATM   12  C2  UNL     1      -0.018  -4.298  -2.459  1.00  0.00     0.022 C 
HETATM   13  C8  UNL     1      -1.513  -2.928  -1.258  1.00  0.00    -0.018 A 
HETATM   14  C1  UNL     1       1.144  -4.367  -3.167  1.00  0.00     0.116 C 
HETATM   15  C11 UNL     1      -0.999  -5.196  -2.725  1.00  0.00     0.007 C 
HETATM   16  C14 UNL     1       1.397  -5.438  -3.954  1.00  0.00     0.116 C 
HETATM   17  C13 UNL     1       0.416  -6.327  -4.162  1.00  0.00     0.022 C 
HETATM   18  C12 UNL     1      -0.774  -6.229  -3.557  1.00  0.00    -0.020 C 
HETATM   19  C16 UNL     1      -1.810  -7.293  -3.832  1.00  0.00     0.061 C 
HETATM   20  C17 UNL     1      -2.952  -7.234  -2.816  1.00  0.00     0.255 C 
HETATM   21  N1  UNL     1      -3.413  -5.871  -2.619  1.00  0.00     0.142 N 
HETATM   22  C10 UNL     1      -2.343  -5.070  -2.027  1.00  0.00     0.246 C 
HETATM   23  C18 UNL     1      -3.976  -5.306  -3.837  1.00  0.00     0.286 C 
HETATM   24  C9  UNL     1      -2.682  -3.579  -1.945  1.00  0.00     0.064 C 
HETATM   25  C7  UNL     1      -1.732  -1.891  -0.435  1.00  0.00     0.022 A 
BRANCH   9  26
HETATM   26  O8  UNL     1       1.511  -1.138   0.827  1.00  0.00    -0.326 OA
HETATM   27  C40 UNL     1       2.856  -1.401   0.500  1.00  0.00     0.181 C 
ENDBRANCH   9  26
BRANCH  14  28
HETATM   28  O1  UNL     1       2.155  -3.438  -3.057  1.00  0.00    -0.326 OA
HETATM   29  C41 UNL     1       2.037  -2.361  -3.961  1.00  0.00     0.181 C 
ENDBRANCH  14  28
BRANCH  16  30
HETATM   30  O2  UNL     1       2.560  -5.537  -4.681  1.00  0.00    -0.326 OA
HETATM   31  C15 UNL     1       3.600  -6.212  -4.010  1.00  0.00     0.181 C 
ENDBRANCH  16  30
ENDBRANCH   7   8
ENDBRANCH   1   7
BRANCH   2  32
HETATM   32  C21 UNL     1      -1.413   1.921   2.813  1.00  0.00     0.066 C 
BRANCH  32  33
HETATM   33  C22 UNL     1      -2.024   3.180   3.481  1.00  0.00     0.246 C 
HETATM   34  C23 UNL     1      -0.970   4.133   4.049  1.00  0.00     0.007 A 
HETATM   35  C24 UNL     1      -1.025   5.461   3.859  1.00  0.00    -0.020 A 
HETATM   36  C31 UNL     1       0.080   3.678   4.754  1.00  0.00     0.024 A 
HETATM   37  C25 UNL     1      -2.179   6.086   3.122  1.00  0.00     0.061 C 
HETATM   38  C28 UNL     1      -0.024   6.234   4.309  1.00  0.00     0.022 A 
HETATM   39  C26 UNL     1      -3.379   5.138   3.096  1.00  0.00     0.255 C 
HETATM   40  N2  UNL     1      -2.961   3.849   2.569  1.00  0.00     0.142 N 
HETATM   41  C27 UNL     1      -4.135   3.038   2.268  1.00  0.00     0.286 C 
HETATM   42  C29 UNL     1       1.050   5.769   4.978  1.00  0.00     0.116 A 
HETATM   43  C30 UNL     1       1.084   4.438   5.236  1.00  0.00     0.116 A 
BRANCH  42  44
HETATM   44  O5  UNL     1       2.067   6.586   5.412  1.00  0.00    -0.326 OA
HETATM   45  C33 UNL     1       2.051   7.959   5.097  1.00  0.00     0.181 C 
ENDBRANCH  42  44
BRANCH  43  46
HETATM   46  O4  UNL     1       2.092   3.763   5.892  1.00  0.00    -0.326 OA
HETATM   47  C32 UNL     1       3.407   4.264   5.894  1.00  0.00     0.181 C 
ENDBRANCH  43  46
ENDBRANCH  32  33
ENDBRANCH   2  32
BRANCH   5  48
HETATM   48  O6  UNL     1       1.291   2.664  -2.078  1.00  0.00    -0.326 OA
HETATM   49  C38 UNL     1       1.750   1.547  -2.805  1.00  0.00     0.181 C 
ENDBRANCH   5  48
BRANCH   4  50
HETATM   50  O7  UNL     1       1.016   4.722  -0.325  1.00  0.00    -0.326 OA
HETATM   51  C39 UNL     1       2.183   5.067   0.390  1.00  0.00     0.181 C 
ENDBRANCH   4  50
TORSDOF 11
