REMARK  3 active torsions:
REMARK  status: ('A' for Active; 'I' for Inactive)
REMARK    1  A    between atoms: C4_4  and  O2_9 
REMARK    2  A    between atoms: C5_5  and  O1_7 
REMARK    3  A    between atoms: C15_17  and  O3_18 
ROOT
HETATM    1  C1  UNL     1       0.955   3.435   1.871  1.00  0.00    -0.021 A 
HETATM    2  C2  UNL     1       0.793   2.114   1.691  1.00  0.00     0.003 A 
HETATM    3  C3  UNL     1       1.884   1.321   1.591  1.00  0.00     0.004 A 
HETATM    4  C4  UNL     1       3.143   1.831   1.669  1.00  0.00     0.112 A 
HETATM    5  C5  UNL     1       3.308   3.165   1.863  1.00  0.00     0.116 A 
HETATM    6  C6  UNL     1       2.200   3.923   1.946  1.00  0.00     0.022 A 
HETATM    7  C9  UNL     1       1.705  -0.187   1.388  1.00  0.00     0.056 C 
HETATM    8  C10 UNL     1       1.223  -0.727   0.044  1.00  0.00     0.004 A 
HETATM    9  C11 UNL     1       0.596  -1.918   0.046  1.00  0.00    -0.006 A 
HETATM   10  C12 UNL     1       0.161  -2.525  -1.070  1.00  0.00    -0.022 A 
HETATM   11  C13 UNL     1       0.321  -1.903  -2.251  1.00  0.00     0.007 A 
HETATM   12  C14 UNL     1       0.945  -0.712  -2.251  1.00  0.00     0.021 A 
HETATM   13  C15 UNL     1       1.449  -0.126  -1.145  1.00  0.00     0.090 A 
HETATM   14  C17 UNL     1      -0.144  -2.566  -3.539  1.00  0.00     0.246 C 
HETATM   15  N1  UNL     1      -0.005  -4.020  -3.445  1.00  0.00     0.142 N 
HETATM   16  C18 UNL     1      -0.766  -4.555  -2.330  1.00  0.00     0.255 C 
HETATM   17  C19 UNL     1      -0.441  -3.907  -0.977  1.00  0.00     0.061 C 
HETATM   18  C20 UNL     1       1.390  -4.434  -3.370  1.00  0.00     0.286 C 
HETATM   19  C21 UNL     1      -1.550  -2.113  -4.026  1.00  0.00     0.064 C 
HETATM   20  C22 UNL     1      -2.533  -1.767  -2.926  1.00  0.00    -0.020 C 
HETATM   21  C23 UNL     1      -2.445  -0.576  -2.313  1.00  0.00    -0.002 C 
HETATM   22  C24 UNL     1      -3.226  -0.285  -1.266  1.00  0.00     0.024 C 
HETATM   23  C25 UNL     1      -4.115  -1.165  -0.768  1.00  0.00     0.100 C 
HETATM   24  C26 UNL     1      -4.279  -2.306  -1.463  1.00  0.00     0.024 C 
HETATM   25  C27 UNL     1      -3.524  -2.589  -2.536  1.00  0.00    -0.002 C 
HETATM   26  O4  UNL     1      -4.793  -0.912   0.399  1.00  0.00    -0.305 OA
HETATM   27  C28 UNL     1      -3.894  -1.042   1.430  1.00  0.00     0.125 A 
HETATM   28  C29 UNL     1      -3.672  -2.239   2.008  1.00  0.00     0.154 A 
HETATM   29  C30 UNL     1      -2.708  -2.348   2.938  1.00  0.00     0.029 A 
HETATM   30  C31 UNL     1      -1.935  -1.304   3.270  1.00  0.00    -0.002 A 
HETATM   31  C32 UNL     1      -2.136  -0.104   2.701  1.00  0.00    -0.018 A 
HETATM   32  C33 UNL     1      -3.152   0.005   1.830  1.00  0.00     0.023 A 
HETATM   33  C34 UNL     1      -1.188   1.063   2.919  1.00  0.00     0.064 C 
HETATM   34  C35 UNL     1      -0.623   1.575   1.562  1.00  0.00     0.245 C 
HETATM   35  N2  UNL     1      -1.473   2.546   0.873  1.00  0.00     0.142 N 
HETATM   36  C36 UNL     1      -1.574   3.784   1.624  1.00  0.00     0.255 C 
HETATM   37  C37 UNL     1      -0.205   4.406   1.919  1.00  0.00     0.061 C 
HETATM   38  C38 UNL     1      -1.030   2.792  -0.495  1.00  0.00     0.286 C 
HETATM   39  O5  UNL     1      -4.393  -3.318   1.602  1.00  0.00    -0.188 OA
ENDROOT
BRANCH   4  40
HETATM   40  O2  UNL     1       4.180   0.924   1.571  1.00  0.00    -0.326 OA
HETATM   41  C8  UNL     1       5.507   1.246   1.906  1.00  0.00     0.181 C 
ENDBRANCH   4  40
BRANCH   5  42
HETATM   42  O1  UNL     1       4.564   3.723   1.908  1.00  0.00    -0.326 OA
HETATM   43  C7  UNL     1       4.724   5.120   1.819  1.00  0.00     0.181 C 
ENDBRANCH   5  42
BRANCH  13  44
HETATM   44  O3  UNL     1       2.076   1.091  -1.238  1.00  0.00    -0.328 OA
HETATM   45  C16 UNL     1       3.390   1.015  -1.745  1.00  0.00     0.181 C 
ENDBRANCH  13  44
TORSDOF 3
