REMARK  3 active torsions:
REMARK  status: ('A' for Active; 'I' for Inactive)
REMARK    1  A    between atoms: C13_14  and  O1_15 
REMARK    2  A    between atoms: C17_21  and  O5_26 
REMARK    3  A    between atoms: C18_22  and  O4_24 
ROOT
HETATM    1  C1  UNL     1       0.641   2.543  -0.129  1.00  0.00     0.002 A 
HETATM    2  C2  UNL     1       0.629   1.188  -0.104  1.00  0.00     0.009 A 
HETATM    3  C3  UNL     1       1.947   0.427  -0.114  1.00  0.00     0.246 C 
HETATM    4  N1  UNL     1       3.113   1.203   0.300  1.00  0.00     0.142 N 
HETATM    5  C4  UNL     1       3.158   2.438  -0.455  1.00  0.00     0.255 C 
HETATM    6  C5  UNL     1       1.949   3.313  -0.131  1.00  0.00     0.064 C 
HETATM    7  C6  UNL     1       3.198   1.437   1.734  1.00  0.00     0.286 C 
HETATM    8  C7  UNL     1       1.802  -0.860   0.689  1.00  0.00     0.064 C 
HETATM    9  C8  UNL     1       0.574  -1.580   0.209  1.00  0.00    -0.018 A 
HETATM   10  C9  UNL     1      -0.524  -0.888  -0.156  1.00  0.00    -0.000 A 
HETATM   11  C10 UNL     1      -0.528   0.475  -0.160  1.00  0.00     0.022 A 
HETATM   12  C11 UNL     1      -1.645   1.233  -0.224  1.00  0.00     0.121 A 
HETATM   13  C12 UNL     1      -1.623   2.574  -0.196  1.00  0.00     0.141 A 
HETATM   14  C13 UNL     1      -0.486   3.287  -0.156  1.00  0.00     0.114 A 
HETATM   15  O2  UNL     1      -2.758   3.041  -0.228  1.00  0.00    -0.298 OA
HETATM   16  C15 UNL     1      -3.676   1.963  -0.263  1.00  0.00     0.304 A 
HETATM   17  O3  UNL     1      -2.810   0.836  -0.279  1.00  0.00    -0.299 OA
HETATM   18  C16 UNL     1      -1.563  -1.685  -0.476  1.00  0.00     0.026 A 
HETATM   19  C17 UNL     1      -1.590  -3.036  -0.480  1.00  0.00     0.116 A 
HETATM   20  C18 UNL     1      -0.472  -3.693  -0.093  1.00  0.00     0.116 A 
HETATM   21  C19 UNL     1       0.582  -2.922   0.232  1.00  0.00     0.022 A 
ENDROOT
BRANCH  14  22
HETATM   22  O1  UNL     1      -0.381   4.661  -0.135  1.00  0.00    -0.326 OA
HETATM   23  C14 UNL     1      -1.523   5.477  -0.043  1.00  0.00     0.181 C 
ENDBRANCH  14  22
BRANCH  19  24
HETATM   24  O5  UNL     1      -2.790  -3.621  -0.834  1.00  0.00    -0.326 OA
HETATM   25  C21 UNL     1      -3.108  -4.928  -0.418  1.00  0.00     0.181 C 
ENDBRANCH  19  24
BRANCH  20  26
HETATM   26  O4  UNL     1      -0.432  -5.067  -0.071  1.00  0.00    -0.326 OA
HETATM   27  C20 UNL     1       0.782  -5.733   0.183  1.00  0.00     0.181 C 
ENDBRANCH  20  26
TORSDOF 3
