REMARK  11 active torsions:
REMARK  status: ('A' for Active; 'I' for Inactive)
REMARK    1  A    between atoms: O1_1  and  C1_2 
REMARK    2  A    between atoms: O1_1  and  C7_13 
REMARK    3  A    between atoms: C5_6  and  C6_8 
REMARK    4  A    between atoms: C12_18  and  C13_19 
REMARK    5  A    between atoms: C13_19  and  O7_20 
REMARK    6  A    between atoms: O7_20  and  C14_21 
REMARK    7  A    between atoms: C18_25  and  C19_27 
REMARK    8  A    between atoms: C31_43  and  C32_44 
REMARK    9  A    between atoms: C32_44  and  C33_45 
REMARK   10  A    between atoms: C33_45  and  C34_46 
REMARK   11  A    between atoms: C34_46  and  C35_47 
ROOT
HETATM    1  C7  UNL     1      -3.208  -0.955  -1.311  1.00  0.00     0.120 C 
HETATM    2  C8  UNL     1      -2.892  -0.043  -2.509  1.00  0.00     0.030 C 
HETATM    3  C9  UNL     1      -1.605   0.766  -2.270  1.00  0.00     0.003 C 
HETATM    4  C10 UNL     1      -0.658   0.017  -1.338  1.00  0.00     0.000 A 
HETATM    5  C11 UNL     1      -0.712  -1.502  -1.539  1.00  0.00     0.005 C 
HETATM    6  C12 UNL     1      -2.125  -2.087  -1.181  1.00  0.00     0.053 C 
HETATM    7  C20 UNL     1      -2.161  -2.707   0.236  1.00  0.00     0.005 C 
HETATM    8  C21 UNL     1       0.537  -2.318  -1.114  1.00  0.00     0.000 C 
HETATM    9  C22 UNL     1       1.495  -1.627  -0.122  1.00  0.00     0.000 C 
HETATM   10  C23 UNL     1       1.829  -0.218  -0.631  1.00  0.00     0.000 C 
HETATM   11  C24 UNL     1       0.601   0.675  -0.810  1.00  0.00     0.000 A 
HETATM   12  C25 UNL     1       0.951   2.115  -1.161  1.00  0.00     0.000 C 
HETATM   13  C26 UNL     1       1.865   2.777  -0.108  1.00  0.00     0.000 C 
HETATM   14  C27 UNL     1       2.586   1.769   0.818  1.00  0.00     0.003 C 
HETATM   15  C28 UNL     1       3.052   0.538  -0.019  1.00  0.00     0.003 C 
HETATM   16  C29 UNL     1       3.948  -0.161   1.024  1.00  0.00     0.033 C 
HETATM   17  C30 UNL     1       4.696   0.991   1.731  1.00  0.00     0.152 C 
HETATM   18  C31 UNL     1       3.905   2.291   1.453  1.00  0.00     0.033 C 
HETATM   19  O14 UNL     1       4.840   0.680   3.091  1.00  0.00    -0.224 OA
HETATM   20  C40 UNL     1       4.010   0.890  -1.199  1.00  0.00     0.000 C 
HETATM   21  C41 UNL     1       1.684   1.382   2.018  1.00  0.00     0.000 C 
HETATM   22  C42 UNL     1      -0.603   0.512   0.082  1.00  0.00     0.000 A 
ENDROOT
BRANCH   6  23
HETATM   23  C13 UNL     1      -2.526  -3.195  -2.197  1.00  0.00     0.147 C 
BRANCH  23  24
HETATM   24  O7  UNL     1      -1.940  -4.437  -1.887  1.00  0.00    -0.329 OA
BRANCH  24  25
HETATM   25  C14 UNL     1      -2.201  -5.452  -2.832  1.00  0.00     0.270 C 
HETATM   26  C15 UNL     1      -1.371  -6.688  -2.553  1.00  0.00     0.241 C 
HETATM   27  C16 UNL     1      -1.893  -7.510  -1.391  1.00  0.00     0.220 C 
HETATM   28  O12 UNL     1      -1.388  -7.499  -3.707  1.00  0.00    -0.215 OA
HETATM   29  C17 UNL     1      -3.380  -7.742  -1.563  1.00  0.00     0.215 C 
HETATM   30  O11 UNL     1      -1.633  -6.855  -0.174  1.00  0.00    -0.218 OA
HETATM   31  C18 UNL     1      -4.157  -6.471  -1.872  1.00  0.00     0.184 C 
HETATM   32  O10 UNL     1      -3.564  -8.656  -2.624  1.00  0.00    -0.218 OA
HETATM   33  O8  UNL     1      -3.583  -5.733  -2.917  1.00  0.00    -0.326 OA
BRANCH  31  34
HETATM   34  C19 UNL     1      -4.512  -5.608  -0.667  1.00  0.00     0.214 C 
HETATM   35  O9  UNL     1      -5.330  -6.337   0.228  1.00  0.00    -0.218 OA
ENDBRANCH  31  34
ENDBRANCH  24  25
ENDBRANCH  23  24
ENDBRANCH   6  23
BRANCH   1  36
HETATM   36  O1  UNL     1      -3.285  -0.142  -0.165  1.00  0.00    -0.332 OA
BRANCH  36  37
HETATM   37  C1  UNL     1      -4.339  -0.422   0.730  1.00  0.00     0.270 C 
HETATM   38  C2  UNL     1      -3.958  -0.101   2.164  1.00  0.00     0.241 C 
HETATM   39  C3  UNL     1      -4.049   1.368   2.528  1.00  0.00     0.220 C 
HETATM   40  O6  UNL     1      -4.826  -0.814   3.017  1.00  0.00    -0.215 OA
HETATM   41  C4  UNL     1      -5.359   1.925   2.018  1.00  0.00     0.215 C 
HETATM   42  O5  UNL     1      -2.967   2.080   1.985  1.00  0.00    -0.218 OA
HETATM   43  C5  UNL     1      -5.607   1.607   0.551  1.00  0.00     0.184 C 
HETATM   44  O4  UNL     1      -6.401   1.365   2.791  1.00  0.00    -0.218 OA
HETATM   45  O2  UNL     1      -5.508   0.233   0.288  1.00  0.00    -0.326 OA
BRANCH  43  46
HETATM   46  C6  UNL     1      -4.835   2.451  -0.456  1.00  0.00     0.214 C 
HETATM   47  O3  UNL     1      -5.088   3.823  -0.229  1.00  0.00    -0.218 OA
ENDBRANCH  43  46
ENDBRANCH  36  37
ENDBRANCH   1  36
BRANCH  18  48
HETATM   48  C32 UNL     1       3.779   3.458   2.471  1.00  0.00     0.033 C 
HETATM   49  C39 UNL     1       3.818   3.135   3.977  1.00  0.00     0.003 C 
BRANCH  48  50
HETATM   50  C33 UNL     1       4.770   4.608   2.207  1.00  0.00     0.157 C 
HETATM   51  O13 UNL     1       6.081   4.103   2.123  1.00  0.00    -0.223 OA
BRANCH  50  52
HETATM   52  C34 UNL     1       4.470   5.446   0.962  1.00  0.00     0.058 C 
BRANCH  52  53
HETATM   53  C35 UNL     1       5.459   6.581   0.866  1.00  0.00    -0.032 C 
HETATM   54  C36 UNL     1       6.612   6.588   0.175  1.00  0.00    -0.048 C 
HETATM   55  C37 UNL     1       7.516   7.800   0.185  1.00  0.00     0.026 C 
HETATM   56  C38 UNL     1       7.123   5.439  -0.660  1.00  0.00     0.026 C 
ENDBRANCH  52  53
ENDBRANCH  50  52
ENDBRANCH  48  50
ENDBRANCH  18  48
TORSDOF 11
