REMARK  5 active torsions:
REMARK  status: ('A' for Active; 'I' for Inactive)
REMARK    1  A    between atoms: C1_1  and  O7_47 
REMARK    2  A    between atoms: C6_6  and  O1_7 
REMARK    3  A    between atoms: C9_11  and  O6_45 
REMARK    4  A    between atoms: C10_12  and  O5_43 
REMARK    5  A    between atoms: C23_27  and  O4_38 
ROOT
HETATM    1  C1  UNL     1      -3.704   1.936   1.751  1.00  0.00     0.118 C 
HETATM    2  C2  UNL     1      -4.452   0.832   1.591  1.00  0.00     0.022 C 
HETATM    3  C3  UNL     1      -3.942  -0.333   1.165  1.00  0.00    -0.018 C 
HETATM    4  C4  UNL     1      -2.627  -0.404   0.898  1.00  0.00     0.029 C 
HETATM    5  C5  UNL     1      -1.842   0.681   1.095  1.00  0.00     0.122 C 
HETATM    6  C6  UNL     1      -2.367   1.824   1.595  1.00  0.00     0.139 C 
HETATM    7  O2  UNL     1      -0.496   0.617   0.853  1.00  0.00    -0.304 OA
HETATM    8  C8  UNL     1       0.091   1.258  -0.216  1.00  0.00     0.120 A 
HETATM    9  C9  UNL     1      -0.590   1.794  -1.266  1.00  0.00     0.139 A 
HETATM   10  C10 UNL     1       0.113   2.393  -2.260  1.00  0.00     0.118 A 
HETATM   11  C11 UNL     1       1.456   2.350  -2.220  1.00  0.00     0.024 A 
HETATM   12  C12 UNL     1       2.149   1.829  -1.200  1.00  0.00     0.009 A 
HETATM   13  C13 UNL     1       1.441   1.316  -0.183  1.00  0.00     0.003 A 
HETATM   14  C14 UNL     1       2.217   0.792   1.003  1.00  0.00     0.064 C 
HETATM   15  C15 UNL     1       3.480   1.648   1.161  1.00  0.00     0.255 C 
HETATM   16  N1  UNL     1       4.327   1.462   0.001  1.00  0.00     0.142 N 
HETATM   17  C16 UNL     1       3.672   1.794  -1.265  1.00  0.00     0.246 C 
HETATM   18  C17 UNL     1       4.123   0.770  -2.336  1.00  0.00     0.064 C 
HETATM   19  C18 UNL     1       3.705  -0.629  -1.923  1.00  0.00    -0.020 A 
HETATM   20  C19 UNL     1       4.514  -1.409  -1.185  1.00  0.00    -0.002 A 
HETATM   21  C20 UNL     1       4.115  -2.620  -0.767  1.00  0.00     0.024 A 
HETATM   22  C21 UNL     1       2.895  -3.108  -1.058  1.00  0.00     0.100 A 
HETATM   23  O3  UNL     1       2.482  -4.334  -0.600  1.00  0.00    -0.305 OA
HETATM   24  C22 UNL     1       1.541  -4.250   0.398  1.00  0.00     0.122 A 
HETATM   25  C23 UNL     1       1.898  -4.082   1.694  1.00  0.00     0.117 A 
HETATM   26  C24 UNL     1       0.909  -3.959   2.603  1.00  0.00     0.026 A 
HETATM   27  C25 UNL     1      -0.387  -4.021   2.271  1.00  0.00    -0.000 A 
HETATM   28  C26 UNL     1      -0.748  -4.194   0.992  1.00  0.00     0.013 A 
HETATM   29  C27 UNL     1      -2.209  -4.158   0.590  1.00  0.00     0.277 C 
HETATM   30  N2  UNL     1      -2.801  -2.858   0.903  1.00  0.00     0.144 N 
HETATM   31  C28 UNL     1      -4.183  -2.786   0.466  1.00  0.00     0.256 C 
HETATM   32  C29 UNL     1      -4.855  -1.530   1.037  1.00  0.00     0.062 C 
HETATM   33  C30 UNL     1      -2.043  -1.716   0.388  1.00  0.00     0.244 C 
HETATM   34  C31 UNL     1      -1.891  -1.663  -1.145  1.00  0.00     0.040 C 
HETATM   35  C32 UNL     1       0.233  -4.323   0.085  1.00  0.00     0.024 A 
HETATM   36  C34 UNL     1       2.109  -2.333  -1.830  1.00  0.00     0.024 A 
HETATM   37  C35 UNL     1       2.500  -1.122  -2.255  1.00  0.00    -0.002 A 
HETATM   38  C36 UNL     1       5.591   2.169   0.158  1.00  0.00     0.286 C 
ENDROOT
BRANCH   1  39
HETATM   39  O7  UNL     1      -4.269   3.088   2.237  1.00  0.00    -0.326 OA
HETATM   40  C39 UNL     1      -4.636   4.004   1.230  1.00  0.00     0.181 C 
ENDBRANCH   1  39
BRANCH   6  41
HETATM   41  O1  UNL     1      -1.563   2.925   1.780  1.00  0.00    -0.324 OA
HETATM   42  C7  UNL     1      -1.014   3.016   3.075  1.00  0.00     0.182 C 
ENDBRANCH   6  41
BRANCH   9  43
HETATM   43  O6  UNL     1      -1.964   1.679  -1.264  1.00  0.00    -0.324 OA
HETATM   44  C38 UNL     1      -2.720   1.639  -2.449  1.00  0.00     0.182 C 
ENDBRANCH   9  43
BRANCH  10  45
HETATM   45  O5  UNL     1      -0.469   2.935  -3.378  1.00  0.00    -0.326 OA
HETATM   46  C37 UNL     1      -0.570   4.341  -3.335  1.00  0.00     0.181 C 
ENDBRANCH  10  45
BRANCH  25  47
HETATM   47  O4  UNL     1       3.231  -3.964   2.009  1.00  0.00    -0.326 OA
HETATM   48  C33 UNL     1       3.582  -3.240   3.166  1.00  0.00     0.181 C 
ENDBRANCH  25  47
TORSDOF 5
