REMARK  9 active torsions:
REMARK  status: ('A' for Active; 'I' for Inactive)
REMARK    1  A    between atoms: C3_3  and  O7_36 
REMARK    2  A    between atoms: C6_6  and  O1_7 
REMARK    3  A    between atoms: O1_7  and  C7_8 
REMARK    4  A    between atoms: C7_8  and  C8_10 
REMARK    5  A    between atoms: C13_16  and  O4_22 
REMARK    6  A    between atoms: O4_22  and  C18_23 
REMARK    7  A    between atoms: C18_23  and  C19_25 
REMARK    8  A    between atoms: O7_36  and  C28_37 
REMARK    9  A    between atoms: C28_37  and  C29_38 
ROOT
HETATM    1  C1  UNL     1      -2.127  -0.137  -0.553  1.00  0.00     0.035 C 
HETATM    2  C2  UNL     1      -1.742   1.316  -0.219  1.00  0.00     0.058 C 
HETATM    3  C3  UNL     1      -0.621   1.709  -1.182  1.00  0.00     0.154 C 
HETATM    4  C4  UNL     1       0.564   0.969  -0.516  1.00  0.00     0.148 C 
HETATM    5  C5  UNL     1       0.420  -0.557  -0.875  1.00  0.00     0.079 C 
HETATM    6  C6  UNL     1      -0.953  -1.129  -0.408  1.00  0.00     0.129 C 
HETATM    7  C13 UNL     1       1.598  -1.342  -0.240  1.00  0.00     0.129 C 
HETATM    8  C14 UNL     1       2.971  -0.789  -0.643  1.00  0.00     0.033 C 
HETATM    9  C15 UNL     1       3.100   0.686  -0.252  1.00  0.00     0.035 C 
HETATM   10  C16 UNL     1       1.977   1.551  -0.863  1.00  0.00     0.152 C 
HETATM   11  O3  UNL     1       2.145   2.861  -0.352  1.00  0.00    -0.224 OA
HETATM   12  C17 UNL     1       2.146   1.686  -2.383  1.00  0.00     0.035 C 
HETATM   13  C24 UNL     1       0.498  -0.705  -2.406  1.00  0.00     0.007 C 
HETATM   14  O6  UNL     1       0.305   1.123   0.881  1.00  0.00    -0.359 OA
HETATM   15  C25 UNL     1      -1.031   1.523   1.131  1.00  0.00     0.095 C 
HETATM   16  C26 UNL     1      -1.607   0.713   2.287  1.00  0.00     0.030 C 
HETATM   17  C27 UNL     1      -1.000   3.002   1.508  1.00  0.00     0.030 C 
ENDROOT
BRANCH   3  18
HETATM   18  O7  UNL     1      -0.447   3.121  -1.187  1.00  0.00    -0.298 OA
BRANCH  18  19
HETATM   19  C28 UNL     1      -1.402   3.746  -1.869  1.00  0.00     0.296 C 
HETATM   20  O8  UNL     1      -2.262   3.178  -2.502  1.00  0.00    -0.259 OA
BRANCH  19  21
HETATM   21  C29 UNL     1      -1.357   5.238  -1.807  1.00  0.00     0.063 A 
HETATM   22  C30 UNL     1      -0.371   5.881  -1.037  1.00  0.00     0.005 A 
HETATM   23  C31 UNL     1      -0.328   7.285  -0.979  1.00  0.00     0.000 A 
HETATM   24  C32 UNL     1      -1.272   8.047  -1.689  1.00  0.00     0.000 A 
HETATM   25  C33 UNL     1      -2.256   7.406  -2.459  1.00  0.00     0.000 A 
HETATM   26  C34 UNL     1      -2.301   6.002  -2.518  1.00  0.00     0.005 A 
ENDBRANCH  19  21
ENDBRANCH  18  19
ENDBRANCH   3  18
BRANCH   6  27
HETATM   27  O1  UNL     1      -0.875  -1.557   0.945  1.00  0.00    -0.301 OA
BRANCH  27  28
HETATM   28  C7  UNL     1      -1.844  -2.410   1.262  1.00  0.00     0.297 C 
HETATM   29  O2  UNL     1      -2.719  -2.750   0.500  1.00  0.00    -0.259 OA
BRANCH  28  30
HETATM   30  C8  UNL     1      -1.791  -2.945   2.656  1.00  0.00     0.082 A 
HETATM   31  C9  UNL     1      -2.854  -3.719   3.164  1.00  0.00     0.104 A 
HETATM   32  N1  UNL     1      -2.826  -4.219   4.436  1.00  0.00    -0.242 NA
HETATM   33  C10 UNL     1      -1.750  -3.967   5.236  1.00  0.00     0.099 A 
HETATM   34  C11 UNL     1      -0.660  -3.201   4.781  1.00  0.00     0.021 A 
HETATM   35  C12 UNL     1      -0.678  -2.682   3.475  1.00  0.00     0.009 A 
ENDBRANCH  28  30
ENDBRANCH  27  28
ENDBRANCH   6  27
BRANCH   7  36
HETATM   36  O4  UNL     1       1.520  -2.709  -0.621  1.00  0.00    -0.301 OA
BRANCH  36  37
HETATM   37  C18 UNL     1       2.199  -3.504   0.201  1.00  0.00     0.297 C 
HETATM   38  O5  UNL     1       2.863  -3.102   1.129  1.00  0.00    -0.259 OA
BRANCH  37  39
HETATM   39  C19 UNL     1       2.094  -4.963  -0.092  1.00  0.00     0.082 A 
HETATM   40  C20 UNL     1       1.357  -5.414  -1.201  1.00  0.00     0.009 A 
HETATM   41  C21 UNL     1       1.279  -6.795  -1.449  1.00  0.00     0.021 A 
HETATM   42  C22 UNL     1       1.938  -7.692  -0.584  1.00  0.00     0.099 A 
HETATM   43  N2  UNL     1       2.652  -7.246   0.490  1.00  0.00    -0.242 NA
HETATM   44  C23 UNL     1       2.734  -5.906   0.740  1.00  0.00     0.104 A 
ENDBRANCH  37  39
ENDBRANCH  36  37
ENDBRANCH   7  36
TORSDOF 9
