REMARK  4 active torsions:
REMARK  status: ('A' for Active; 'I' for Inactive)
REMARK    1  A    between atoms: C5_5  and  C7_7 
REMARK    2  A    between atoms: C7_7  and  O1_8 
REMARK    3  A    between atoms: O1_8  and  C8_9 
REMARK    4  A    between atoms: C14_15  and  C17_18 
ROOT
HETATM    1  C8  UNL     1      -0.900   0.490  -0.059  1.00  0.00     0.127 C 
HETATM    2  C9  UNL     1       0.420  -0.262  -0.297  1.00  0.00     0.033 C 
HETATM    3  C10 UNL     1       0.848  -1.256   0.818  1.00  0.00     0.037 C 
HETATM    4  C11 UNL     1       0.238  -0.854   2.197  1.00  0.00     0.157 C 
HETATM    5  C12 UNL     1      -1.332  -0.904   2.049  1.00  0.00     0.155 C 
HETATM    6  C13 UNL     1      -1.930  -0.359   0.701  1.00  0.00     0.060 C 
HETATM    7  C14 UNL     1      -3.104   0.564   1.131  1.00  0.00     0.062 C 
HETATM    8  C15 UNL     1      -3.455   0.115   2.543  1.00  0.00     0.010 C 
HETATM    9  C16 UNL     1      -2.061  -0.082   3.125  1.00  0.00     0.034 C 
HETATM   10  C19 UNL     1      -2.436  -1.467  -0.246  1.00  0.00     0.005 C 
HETATM   11  O3  UNL     1      -1.791  -2.250   2.219  1.00  0.00    -0.223 OA
HETATM   12  C20 UNL     1       0.869   0.490   2.658  1.00  0.00     0.058 C 
HETATM   13  C21 UNL     1       2.348   0.637   2.346  1.00  0.00    -0.032 C 
HETATM   14  C22 UNL     1       3.033  -0.191   1.525  1.00  0.00    -0.046 C 
HETATM   15  C23 UNL     1       2.398  -1.420   0.879  1.00  0.00     0.018 C 
HETATM   16  C24 UNL     1       3.027  -1.598  -0.524  1.00  0.00     0.006 C 
HETATM   17  C25 UNL     1       4.551  -1.844  -0.488  1.00  0.00     0.034 C 
HETATM   18  C26 UNL     1       5.289  -1.066   0.629  1.00  0.00     0.156 C 
HETATM   19  C27 UNL     1       4.484   0.117   1.201  1.00  0.00     0.055 C 
HETATM   20  O4  UNL     1       5.625  -1.943   1.687  1.00  0.00    -0.223 OA
HETATM   21  C28 UNL     1       2.758  -2.674   1.693  1.00  0.00     0.004 C 
HETATM   22  O5  UNL     1       0.637  -1.773   3.211  1.00  0.00    -0.223 OA
ENDROOT
BRANCH   1  23
HETATM   23  O1  UNL     1      -1.434   0.900  -1.313  1.00  0.00    -0.301 OA
BRANCH  23  24
HETATM   24  C7  UNL     1      -0.727   1.879  -1.867  1.00  0.00     0.296 C 
HETATM   25  O6  UNL     1       0.164   2.471  -1.303  1.00  0.00    -0.259 OA
BRANCH  24  26
HETATM   26  C5  UNL     1      -1.102   2.217  -3.274  1.00  0.00     0.063 A 
HETATM   27  C4  UNL     1      -0.434   3.252  -3.951  1.00  0.00     0.005 A 
HETATM   28  C3  UNL     1      -0.789   3.570  -5.274  1.00  0.00     0.000 A 
HETATM   29  C2  UNL     1      -1.811   2.854  -5.920  1.00  0.00     0.000 A 
HETATM   30  C1  UNL     1      -2.479   1.818  -5.244  1.00  0.00     0.000 A 
HETATM   31  C6  UNL     1      -2.125   1.500  -3.920  1.00  0.00     0.005 A 
ENDBRANCH  24  26
ENDBRANCH  23  24
ENDBRANCH   1  23
BRANCH   7  32
HETATM   32  C17 UNL     1      -4.305   0.592   0.213  1.00  0.00     0.151 C 
HETATM   33  C18 UNL     1      -4.438   1.746  -0.744  1.00  0.00     0.072 C 
HETATM   34  O2  UNL     1      -5.133  -0.287   0.246  1.00  0.00    -0.296 OA
ENDBRANCH   7  32
TORSDOF 4
