REMARK  5 active torsions:
REMARK  status: ('A' for Active; 'I' for Inactive)
REMARK    1  A    between atoms: C1_1  and  C12_14 
REMARK    2  A    between atoms: C4_4  and  O1_7 
REMARK    3  A    between atoms: O1_7  and  C7_8 
REMARK    4  A    between atoms: C7_8  and  C8_9 
REMARK    5  A    between atoms: C8_9  and  C9_10 
ROOT
HETATM    1  C1  UNL     1       2.013   1.778  -0.340  1.00  0.00    -0.000 A 
HETATM    2  C2  UNL     1       2.425   0.500  -0.457  1.00  0.00     0.002 A 
HETATM    3  C3  UNL     1       1.572  -0.527  -0.333  1.00  0.00     0.025 A 
HETATM    4  C4  UNL     1       0.260  -0.347  -0.100  1.00  0.00     0.103 A 
HETATM    5  C5  UNL     1      -0.145   0.930   0.035  1.00  0.00     0.025 A 
HETATM    6  C6  UNL     1       0.704   1.964  -0.085  1.00  0.00     0.002 A 
ENDROOT
BRANCH   4   7
HETATM    7  O1  UNL     1      -0.567  -1.432   0.019  1.00  0.00    -0.276 OA
BRANCH   7   8
HETATM    8  C7  UNL     1      -1.828  -1.336  -0.483  1.00  0.00     0.276 C 
HETATM    9  O2  UNL     1      -2.124  -0.693  -1.466  1.00  0.00    -0.264 OA
BRANCH   8  10
HETATM   10  C8  UNL     1      -2.818  -2.157   0.334  1.00  0.00     0.087 C 
HETATM   11  C11 UNL     1      -3.353  -1.316   1.504  1.00  0.00     0.010 C 
BRANCH  10  12
HETATM   12  C9  UNL     1      -2.269  -3.512   0.822  1.00  0.00     0.010 C 
HETATM   13  C10 UNL     1      -1.813  -4.423  -0.326  1.00  0.00     0.001 C 
ENDBRANCH  10  12
ENDBRANCH   8  10
ENDBRANCH   7   8
ENDBRANCH   4   7
BRANCH   1  14
HETATM   14  C12 UNL     1       2.917   2.770  -0.478  1.00  0.00    -0.005 C 
HETATM   15  C13 UNL     1       2.708   4.095  -0.393  1.00  0.00    -0.026 C 
HETATM   16  C14 UNL     1       3.800   5.120  -0.567  1.00  0.00     0.031 C 
ENDBRANCH   1  14
TORSDOF 5
