REMARK  0 active torsions:
REMARK  status: ('A' for Active; 'I' for Inactive)
ROOT
HETATM    1  N1  UNL     1       1.678  -1.387  -0.043  1.00  0.00    -0.152 NA
HETATM    2  C1  UNL     1       2.230  -0.139   0.096  1.00  0.00     0.354 A 
HETATM    3  N2  UNL     1       1.376   0.936   0.168  1.00  0.00    -0.262 N 
HETATM    4  C2  UNL     1       0.047   0.714   0.085  1.00  0.00     0.170 A 
HETATM    5  C3  UNL     1      -0.437  -0.534  -0.053  1.00  0.00     0.155 A 
HETATM    6  C4  UNL     1       0.335  -1.646  -0.122  1.00  0.00     0.302 A 
HETATM    7  O1  UNL     1      -0.061  -2.781  -0.244  1.00  0.00    -0.263 OA
HETATM    8  N3  UNL     1      -1.689  -0.362  -0.094  1.00  0.00    -0.302 N 
HETATM    9  C5  UNL     1      -1.979   0.865   0.005  1.00  0.00     0.180 A 
HETATM   10  N4  UNL     1      -0.915   1.542   0.117  1.00  0.00    -0.206 NA
HETATM   11  C6  UNL     1      -2.679  -1.435  -0.237  1.00  0.00     0.132 C 
HETATM   12  C7  UNL     1       1.934   2.276   0.324  1.00  0.00     0.137 C 
HETATM   13  O2  UNL     1       3.431  -0.029   0.151  1.00  0.00    -0.244 OA
ENDROOT
TORSDOF 0
