REMARK  4 active torsions:
REMARK  status: ('A' for Active; 'I' for Inactive)
REMARK    1  A    between atoms: C1_3  and  C10_12 
REMARK    2  A    between atoms: C4_6  and  C5_7 
REMARK    3  A    between atoms: C6_8  and  C7_9 
REMARK    4  A    between atoms: C11_13  and  C12_14 
ROOT
HETATM    1  C7  UNL     1       4.616   0.158   0.000  1.00  0.00    -0.014 C 
HETATM    2  C8  UNL     1       5.811   0.361   0.000  1.00  0.00    -0.077 C 
HETATM    3  C9  UNL     1       7.260   0.610   0.000  1.00  0.00     0.091 C 
ENDROOT
BRANCH   1   4
HETATM    4  C6  UNL     1       3.422  -0.045   0.000  1.00  0.00    -0.009 C 
HETATM    5  C5  UNL     1       2.226  -0.243   0.000  1.00  0.00    -0.044 C 
BRANCH   5   6
HETATM    6  C4  UNL     1       0.927  -0.453   0.000  1.00  0.00     0.078 A 
HETATM    7  S1  UNL     1       0.389  -2.188   0.000  1.00  0.00    -0.042 SA
HETATM    8  S2  UNL     1      -1.629  -2.171   0.000  1.00  0.00    -0.042 SA
HETATM    9  C1  UNL     1      -2.138  -0.427   0.000  1.00  0.00     0.077 A 
HETATM   10  C2  UNL     1      -1.270   0.598   0.000  1.00  0.00     0.016 A 
HETATM   11  C3  UNL     1       0.075   0.586   0.000  1.00  0.00     0.016 A 
BRANCH   9  12
HETATM   12  C10 UNL     1      -3.433  -0.200   0.000  1.00  0.00    -0.052 C 
HETATM   13  C11 UNL     1      -4.628   0.004   0.000  1.00  0.00    -0.058 C 
BRANCH  13  14
HETATM   14  C12 UNL     1      -5.926   0.217   0.000  1.00  0.00     0.049 C 
HETATM   15  C13 UNL     1      -6.794  -0.803   0.000  1.00  0.00     0.009 C 
ENDBRANCH  13  14
ENDBRANCH   9  12
ENDBRANCH   5   6
ENDBRANCH   1   4
TORSDOF 4
