REMARK  2 active torsions:
REMARK  status: ('A' for Active; 'I' for Inactive)
REMARK    1  A    between atoms: C4_4  and  C5_6 
REMARK    2  A    between atoms: C6_7  and  C7_8 
ROOT
HETATM    1  C1  UNL     1       2.248   1.235   0.557  1.00  0.00     0.036 A 
HETATM    2  C2  UNL     1       2.459   0.287  -0.364  1.00  0.00     0.008 A 
HETATM    3  C3  UNL     1       1.296  -0.318  -0.626  1.00  0.00     0.015 A 
HETATM    4  C4  UNL     1       0.341   0.243   0.128  1.00  0.00     0.071 A 
HETATM    5  S1  UNL     1       0.847   1.322   0.986  1.00  0.00    -0.078 SA
ENDROOT
BRANCH   4   6
HETATM    6  C5  UNL     1      -0.923  -0.111   0.123  1.00  0.00    -0.050 C 
HETATM    7  C6  UNL     1      -2.088  -0.444   0.116  1.00  0.00    -0.013 C 
BRANCH   7   8
HETATM    8  C7  UNL     1      -3.568  -0.870   0.106  1.00  0.00     0.284 C 
HETATM    9  O1  UNL     1      -3.856  -2.026  -0.095  1.00  0.00    -0.273 OA
ENDBRANCH   7   8
ENDBRANCH   4   6
TORSDOF 2
