REMARK  3 active torsions:
REMARK  status: ('A' for Active; 'I' for Inactive)
REMARK    1  A    between atoms: C1_1  and  C2_2 
REMARK    2  A    between atoms: C1_1  and  S1_6 
REMARK    3  A    between atoms: C2_2  and  C3_4 
ROOT
HETATM    1  S1  UNL     1      -2.538   1.032   0.134  1.00  0.00    -0.034 SA
HETATM    2  C5  UNL     1      -4.124   0.207   0.197  1.00  0.00     0.134 C 
HETATM    3  N1  UNL     1      -5.146  -0.335   0.232  1.00  0.00    -0.184 NA
ENDROOT
BRANCH   1   4
HETATM    4  C1  UNL     1      -1.202  -0.208   0.176  1.00  0.00     0.105 C 
BRANCH   4   5
HETATM    5  C2  UNL     1       0.166   0.480   0.223  1.00  0.00     0.164 C 
HETATM    6  O1  UNL     1       0.256   1.257   1.396  1.00  0.00    -0.223 OA
BRANCH   5   7
HETATM    7  C3  UNL     1       1.332  -0.516   0.193  1.00  0.00     0.034 C 
HETATM    8  C4  UNL     1       2.216  -0.350  -1.051  1.00  0.00     0.003 C 
ENDBRANCH   5   7
ENDBRANCH   4   5
ENDBRANCH   1   4
TORSDOF 3
