REMARK  1 active torsions:
REMARK  status: ('A' for Active; 'I' for Inactive)
REMARK    1  A    between atoms: C8_8  and  C10_12 
ROOT
HETATM    1  C1  UNL     1      -4.361   0.756   0.060  1.00  0.00     0.002 A 
HETATM    2  C2  UNL     1      -4.637  -0.553   0.063  1.00  0.00     0.028 A 
HETATM    3  C3  UNL     1      -3.672  -1.491   0.046  1.00  0.00     0.136 A 
HETATM    4  C4  UNL     1      -2.383  -1.073   0.025  1.00  0.00     0.089 A 
HETATM    5  C5  UNL     1      -2.088   0.244   0.027  1.00  0.00     0.009 A 
HETATM    6  C6  UNL     1      -3.083   1.152   0.044  1.00  0.00     0.000 A 
HETATM    7  C7  UNL     1      -0.815   0.681   0.014  1.00  0.00     0.025 A 
HETATM    8  C8  UNL     1       0.231  -0.166  -0.012  1.00  0.00     0.103 A 
HETATM    9  O1  UNL     1      -0.023  -1.510  -0.031  1.00  0.00    -0.273 OA
HETATM   10  C9  UNL     1      -1.321  -1.929   0.000  1.00  0.00     0.302 A 
HETATM   11  O2  UNL     1      -1.495  -3.129   0.000  1.00  0.00    -0.259 OA
HETATM   12  O5  UNL     1      -4.086  -2.792   0.053  1.00  0.00    -0.190 OA
ENDROOT
BRANCH   8  13
HETATM   13  C10 UNL     1       1.521   0.263  -0.031  1.00  0.00     0.025 A 
HETATM   14  C11 UNL     1       2.516  -0.649  -0.085  1.00  0.00     0.032 A 
HETATM   15  C12 UNL     1       3.822  -0.331  -0.111  1.00  0.00     0.156 A 
HETATM   16  C13 UNL     1       4.186   0.961  -0.077  1.00  0.00     0.156 A 
HETATM   17  O4  UNL     1       4.787  -1.289  -0.171  1.00  0.00    -0.188 OA
HETATM   18  C14 UNL     1       3.221   1.890  -0.020  1.00  0.00     0.030 A 
HETATM   19  O3  UNL     1       5.500   1.309  -0.100  1.00  0.00    -0.188 OA
HETATM   20  C15 UNL     1       1.923   1.550   0.001  1.00  0.00     0.004 A 
ENDBRANCH   8  13
TORSDOF 1
