REMARK  0 active torsions:
REMARK  status: ('A' for Active; 'I' for Inactive)
ROOT
HETATM    1  C1  UNL     1       2.009   2.982  -0.936  1.00  0.00     0.007 C 
HETATM    2  C2  UNL     1       1.996   1.954   0.222  1.00  0.00     0.001 C 
HETATM    3  C3  UNL     1       3.327   1.149   0.281  1.00  0.00     0.007 C 
HETATM    4  C4  UNL     1       3.878   0.693  -1.092  1.00  0.00     0.065 C 
HETATM    5  C5  UNL     1       3.669   1.662  -2.242  1.00  0.00     0.150 C 
HETATM    6  C6  UNL     1       2.348   2.412  -2.316  1.00  0.00     0.058 C 
HETATM    7  C7  UNL     1       2.358   3.522  -3.382  1.00  0.00     0.008 C 
HETATM    8  O1  UNL     1       4.516   1.786  -3.098  1.00  0.00    -0.296 OA
HETATM    9  C8  UNL     1       3.183  -0.082   1.197  1.00  0.00     0.001 C 
HETATM   10  C9  UNL     1       1.948  -0.976   0.970  1.00  0.00     0.004 C 
HETATM   11  C10 UNL     1       0.692  -0.344   0.310  1.00  0.00     0.015 C 
HETATM   12  C11 UNL     1       0.675   1.178   0.613  1.00  0.00     0.003 C 
HETATM   13  C12 UNL     1      -0.578   1.782  -0.074  1.00  0.00     0.001 C 
HETATM   14  C13 UNL     1      -1.876   0.948  -0.154  1.00  0.00     0.008 C 
HETATM   15  C14 UNL     1      -1.960  -0.306   0.733  1.00  0.00     0.034 C 
HETATM   16  C15 UNL     1      -0.624  -1.040   0.729  1.00  0.00    -0.042 C 
HETATM   17  C16 UNL     1      -0.643  -2.365   0.949  1.00  0.00    -0.008 C 
HETATM   18  C17 UNL     1      -1.769  -3.092   0.942  1.00  0.00    -0.001 C 
HETATM   19  C18 UNL     1      -2.962  -2.610   0.542  1.00  0.00    -0.005 A 
HETATM   20  C19 UNL     1      -3.077  -1.283   0.334  1.00  0.00    -0.016 A 
HETATM   21  C20 UNL     1      -4.252  -0.814  -0.118  1.00  0.00     0.040 A 
HETATM   22  C21 UNL     1      -5.310  -1.612  -0.390  1.00  0.00     0.220 A 
HETATM   23  C22 UNL     1      -5.172  -2.945  -0.167  1.00  0.00     0.166 A 
HETATM   24  C23 UNL     1      -4.006  -3.439   0.300  1.00  0.00     0.006 A 
HETATM   25  C24 UNL     1      -3.880  -4.939   0.526  1.00  0.00     0.033 C 
HETATM   26  O2  UNL     1      -6.264  -3.716  -0.440  1.00  0.00    -0.187 OA
HETATM   27  O3  UNL     1      -6.344  -1.133  -0.800  1.00  0.00    -0.284 OA
HETATM   28  C25 UNL     1      -2.423   0.115   2.152  1.00  0.00     0.008 C 
HETATM   29  C26 UNL     1       0.540   1.341   2.163  1.00  0.00     0.000 C 
HETATM   30  C27 UNL     1       0.706  -0.679  -1.205  1.00  0.00     0.004 C 
HETATM   31  C28 UNL     1       4.439   2.047   0.897  1.00  0.00     0.000 C 
ENDROOT
TORSDOF 0
