REMARK  0 active torsions:
REMARK  status: ('A' for Active; 'I' for Inactive)
ROOT
HETATM    1  C1  UNL     1      -5.187   0.304  -1.974  1.00  0.00     0.212 C 
HETATM    2  C2  UNL     1      -6.102  -0.394  -0.997  1.00  0.00     0.185 C 
HETATM    3  C3  UNL     1      -5.323  -1.305  -0.048  1.00  0.00     0.036 C 
HETATM    4  C4  UNL     1      -3.837  -0.905   0.122  1.00  0.00     0.005 C 
HETATM    5  C5  UNL     1      -3.587   0.629   0.065  1.00  0.00     0.031 C 
HETATM    6  C6  UNL     1      -4.106   1.144  -1.306  1.00  0.00     0.185 C 
HETATM    7  O1  UNL     1      -4.586   2.464  -1.194  1.00  0.00    -0.221 OA
HETATM    8  C7  UNL     1      -2.058   0.971   0.231  1.00  0.00     0.003 C 
HETATM    9  C8  UNL     1      -1.152  -0.274   0.147  1.00  0.00     0.000 C 
HETATM   10  C9  UNL     1      -1.558  -1.126  -1.059  1.00  0.00     0.000 C 
HETATM   11  C10 UNL     1      -2.944  -1.738  -0.826  1.00  0.00     0.000 C 
HETATM   12  C11 UNL     1       0.354   0.031   0.148  1.00  0.00     0.003 C 
HETATM   13  C12 UNL     1       0.844   0.956   1.285  1.00  0.00     0.003 C 
HETATM   14  C13 UNL     1      -0.131   2.152   1.415  1.00  0.00     0.000 C 
HETATM   15  C14 UNL     1      -1.621   1.772   1.475  1.00  0.00     0.000 C 
HETATM   16  C15 UNL     1       2.228   1.479   0.785  1.00  0.00     0.032 C 
HETATM   17  C16 UNL     1       2.348   1.022  -0.667  1.00  0.00     0.118 C 
HETATM   18  C17 UNL     1       0.937   0.665  -1.124  1.00  0.00     0.030 C 
HETATM   19  O2  UNL     1       3.119  -0.141  -0.658  1.00  0.00    -0.337 OA
HETATM   20  C18 UNL     1       4.075  -0.059   0.363  1.00  0.00     0.187 C 
HETATM   21  C19 UNL     1       3.540   0.948   1.389  1.00  0.00     0.054 C 
HETATM   22  C20 UNL     1       4.513   2.095   1.718  1.00  0.00     0.005 C 
HETATM   23  O3  UNL     1       5.277   0.400  -0.206  1.00  0.00    -0.335 OA
HETATM   24  C21 UNL     1       5.845  -0.458  -1.166  1.00  0.00     0.145 C 
HETATM   25  C22 UNL     1       6.138  -1.845  -0.597  1.00  0.00     0.030 C 
HETATM   26  C23 UNL     1       4.847  -2.436  -0.017  1.00  0.00     0.007 C 
HETATM   27  C24 UNL     1       4.267  -1.437   0.988  1.00  0.00     0.056 C 
HETATM   28  C25 UNL     1       6.733  -2.773  -1.668  1.00  0.00     0.003 C 
HETATM   29  C26 UNL     1       0.891   0.206   2.631  1.00  0.00     0.000 C 
HETATM   30  C27 UNL     1      -4.397   1.261   1.230  1.00  0.00     0.003 C 
HETATM   31  O4  UNL     1      -7.037  -1.141  -1.737  1.00  0.00    -0.221 OA
HETATM   32  O5  UNL     1      -5.969   1.124  -2.810  1.00  0.00    -0.218 OA
ENDROOT
TORSDOF 0
