REMARK  3 active torsions:
REMARK  status: ('A' for Active; 'I' for Inactive)
REMARK    1  A    between atoms: C6_6  and  O1_7 
REMARK    2  A    between atoms: O1_7  and  C7_8 
REMARK    3  A    between atoms: C11_12  and  C12_14 
ROOT
HETATM    1  C1  UNL     1      -4.149  -1.353  -1.058  1.00  0.00     0.209 C 
HETATM    2  C2  UNL     1      -4.923  -2.029   0.051  1.00  0.00     0.185 C 
HETATM    3  C3  UNL     1      -3.998  -2.722   1.045  1.00  0.00     0.036 C 
HETATM    4  C4  UNL     1      -2.565  -2.147   1.036  1.00  0.00     0.005 C 
HETATM    5  C5  UNL     1      -2.492  -0.608   0.791  1.00  0.00     0.028 C 
HETATM    6  C6  UNL     1      -3.185  -0.260  -0.574  1.00  0.00     0.151 C 
HETATM    7  C13 UNL     1      -0.993  -0.107   0.809  1.00  0.00     0.002 C 
HETATM    8  C14 UNL     1       0.016  -1.273   0.844  1.00  0.00     0.000 C 
HETATM    9  C15 UNL     1      -0.344  -2.288  -0.246  1.00  0.00     0.000 C 
HETATM   10  C16 UNL     1      -1.642  -3.004   0.140  1.00  0.00     0.000 C 
HETATM   11  C17 UNL     1       1.494  -0.869   0.777  1.00  0.00     0.003 C 
HETATM   12  C18 UNL     1       1.928   0.197   1.805  1.00  0.00     0.003 C 
HETATM   13  C19 UNL     1       0.889   1.347   1.782  1.00  0.00     0.000 C 
HETATM   14  C20 UNL     1      -0.580   0.899   1.903  1.00  0.00     0.000 C 
HETATM   15  C21 UNL     1       3.293   0.713   1.251  1.00  0.00     0.032 C 
HETATM   16  C22 UNL     1       3.416   0.141  -0.161  1.00  0.00     0.118 C 
HETATM   17  C23 UNL     1       2.021  -0.332  -0.562  1.00  0.00     0.030 C 
HETATM   18  O7  UNL     1       4.247  -0.977  -0.078  1.00  0.00    -0.337 OA
HETATM   19  C24 UNL     1       5.189  -0.799   0.943  1.00  0.00     0.187 C 
HETATM   20  C25 UNL     1       4.620   0.265   1.889  1.00  0.00     0.054 C 
HETATM   21  C26 UNL     1       5.560   1.460   2.138  1.00  0.00     0.005 C 
HETATM   22  O8  UNL     1       6.386  -0.352   0.353  1.00  0.00    -0.335 OA
HETATM   23  C27 UNL     1       6.986  -1.263  -0.537  1.00  0.00     0.145 C 
HETATM   24  C28 UNL     1       7.303  -2.599   0.132  1.00  0.00     0.030 C 
HETATM   25  C29 UNL     1       6.019  -3.177   0.738  1.00  0.00     0.007 C 
HETATM   26  C30 UNL     1       5.407  -2.124   1.666  1.00  0.00     0.056 C 
HETATM   27  C31 UNL     1       7.931  -3.589  -0.862  1.00  0.00     0.003 C 
HETATM   28  C32 UNL     1       2.000  -0.387   3.229  1.00  0.00     0.000 C 
HETATM   29  C33 UNL     1      -3.277   0.041   1.970  1.00  0.00     0.003 C 
HETATM   30  O9  UNL     1      -5.789  -2.969  -0.541  1.00  0.00    -0.221 OA
HETATM   31  O10 UNL     1      -5.103  -0.875  -1.973  1.00  0.00    -0.218 OA
ENDROOT
BRANCH   6  32
HETATM   32  O1  UNL     1      -3.848   0.969  -0.435  1.00  0.00    -0.329 OA
BRANCH  32  33
HETATM   33  C7  UNL     1      -4.004   1.738  -1.610  1.00  0.00     0.270 C 
HETATM   34  C8  UNL     1      -5.301   2.500  -1.486  1.00  0.00     0.241 C 
HETATM   35  C9  UNL     1      -5.468   3.414  -2.678  1.00  0.00     0.220 C 
HETATM   36  O6  UNL     1      -6.387   1.605  -1.452  1.00  0.00    -0.215 OA
HETATM   37  C10 UNL     1      -4.251   4.314  -2.790  1.00  0.00     0.215 C 
HETATM   38  O5  UNL     1      -6.646   4.158  -2.485  1.00  0.00    -0.218 OA
HETATM   39  C11 UNL     1      -2.952   3.509  -2.725  1.00  0.00     0.184 C 
HETATM   40  O4  UNL     1      -4.317   4.990  -4.026  1.00  0.00    -0.218 OA
HETATM   41  O2  UNL     1      -2.928   2.649  -1.614  1.00  0.00    -0.326 OA
BRANCH  39  42
HETATM   42  C12 UNL     1      -1.726   4.408  -2.621  1.00  0.00     0.214 C 
HETATM   43  O3  UNL     1      -1.724   5.360  -3.664  1.00  0.00    -0.218 OA
ENDBRANCH  39  42
ENDBRANCH  32  33
ENDBRANCH   6  32
TORSDOF 3
