REMARK  6 active torsions:
REMARK  status: ('A' for Active; 'I' for Inactive)
REMARK    1  A    between atoms: C12_13  and  O4_19 
REMARK    2  A    between atoms: C13_14  and  O2_15 
REMARK    3  A    between atoms: O2_15  and  C14_16 
REMARK    4  A    between atoms: O4_19  and  C16_20 
REMARK    5  A    between atoms: C19_24  and  O6_26 
REMARK    6  A    between atoms: O6_26  and  C21_27 
ROOT
HETATM    1  C1  UNL     1       0.307   1.657   0.045  1.00  0.00     0.056 C 
HETATM    2  C2  UNL     1       0.311  -0.881  -0.102  1.00  0.00     0.149 A 
HETATM    3  C3  UNL     1      -0.984  -0.546   0.448  1.00  0.00     0.058 A 
HETATM    4  C4  UNL     1      -2.248   0.175   0.230  1.00  0.00     0.154 A 
HETATM    5  C5  UNL     1      -1.565   0.986   0.673  1.00  0.00     0.035 A 
HETATM    6  C6  UNL     1      -0.938   1.408   0.072  1.00  0.00     0.008 C 
HETATM    7  O1  UNL     1      -2.911  -0.645   1.112  1.00  0.00    -0.223 OA
HETATM    8  C7  UNL     1      -0.955  -2.807  -0.980  1.00  0.00     0.006 C 
HETATM    9  C8  UNL     1       1.709  -1.421  -0.331  1.00  0.00     0.188 A 
HETATM   10  C9  UNL     1       3.170  -1.156  -0.246  1.00  0.00     0.138 A 
HETATM   11  C10 UNL     1       3.061   0.189  -0.266  1.00  0.00     0.045 A 
HETATM   12  C11 UNL     1       4.019   1.067  -0.244  1.00  0.00    -0.018 C 
HETATM   13  C12 UNL     1       3.532   2.316  -0.712  1.00  0.00     0.170 C 
HETATM   14  C13 UNL     1       1.938   2.876  -0.095  1.00  0.00     0.157 C 
HETATM   15  C18 UNL     1       5.231   0.657   0.099  1.00  0.00    -0.022 C 
HETATM   16  C19 UNL     1       5.423  -0.823   0.441  1.00  0.00     0.141 C 
HETATM   17  C20 UNL     1       4.040  -1.407   0.987  1.00  0.00     0.065 C 
HETATM   18  C24 UNL     1       6.926   1.101   0.554  1.00  0.00     0.028 C 
HETATM   19  C25 UNL     1       2.675   1.039   1.525  1.00  0.00     0.007 C 
HETATM   20  C26 UNL     1       2.551   0.149  -0.941  1.00  0.00     0.037 A 
HETATM   21  O7  UNL     1       3.824  -1.780  -1.345  1.00  0.00    -0.225 OA
HETATM   22  O8  UNL     1       1.467  -2.778   0.116  1.00  0.00    -0.330 OA
HETATM   23  C27 UNL     1       0.291  -1.787   0.384  1.00  0.00     0.198 A 
HETATM   24  C28 UNL     1      -1.934  -3.627   0.526  1.00  0.00     0.074 C 
HETATM   25  C29 UNL     1      -2.111  -2.969  -0.571  1.00  0.00     0.013 C 
HETATM   26  C30 UNL     1      -4.055  -3.369   0.003  1.00  0.00     0.026 C 
HETATM   27  C31 UNL     1      -3.882  -4.497   0.197  1.00  0.00    -0.026 C 
HETATM   28  C32 UNL     1      -2.604  -5.223   0.299  1.00  0.00    -0.009 C 
HETATM   29  C33 UNL     1      -1.446  -4.579   0.227  1.00  0.00    -0.022 C 
HETATM   30  O9  UNL     1       0.113  -1.604  -0.865  1.00  0.00    -0.334 OA
HETATM   31  C34 UNL     1       0.097   1.295  -2.441  1.00  0.00     0.005 C 
ENDROOT
BRANCH  13  32
HETATM   32  O4  UNL     1       4.030   3.572  -0.132  1.00  0.00    -0.294 OA
BRANCH  32  33
HETATM   33  C16 UNL     1       5.364   3.898  -0.115  1.00  0.00     0.296 C 
HETATM   34  C17 UNL     1       5.899   3.428  -1.130  1.00  0.00     0.074 C 
HETATM   35  O5  UNL     1       5.724   4.948   0.398  1.00  0.00    -0.259 OA
ENDBRANCH  32  33
ENDBRANCH  13  32
BRANCH  14  36
HETATM   36  O2  UNL     1       1.872   2.763   1.021  1.00  0.00    -0.308 OA
BRANCH  36  37
HETATM   37  C14 UNL     1       0.883   3.755   1.190  1.00  0.00     0.229 C 
HETATM   38  C15 UNL     1       0.057   4.105   2.163  1.00  0.00     0.057 C 
HETATM   39  O3  UNL     1       0.354   3.950  -0.277  1.00  0.00    -0.163 OA
ENDBRANCH  36  37
ENDBRANCH  14  36
BRANCH  16  40
HETATM   40  O6  UNL     1       6.591  -1.103   1.238  1.00  0.00    -0.333 OA
BRANCH  40  41
HETATM   41  C21 UNL     1       7.760  -0.695   0.541  1.00  0.00     0.072 C 
HETATM   42  C22 UNL     1       7.822  -0.210  -0.912  1.00  0.00     0.058 C 
HETATM   43  C23 UNL     1       8.965  -0.941   1.036  1.00  0.00     0.021 C 
ENDBRANCH  40  41
ENDBRANCH  16  40
TORSDOF 6
