REMARK  5 active torsions:
REMARK  status: ('A' for Active; 'I' for Inactive)
REMARK    1  A    between atoms: C1_1  and  O10_26 
REMARK    2  A    between atoms: C2_2  and  O9_24 
REMARK    3  A    between atoms: C3_3  and  O3_12 
REMARK    4  A    between atoms: O3_12  and  C10_13 
REMARK    5  A    between atoms: C11_15  and  C15_22 
ROOT
HETATM    1  C1  UNL     1       2.446  -1.240  -2.314  1.00  0.00     0.120 A 
HETATM    2  C2  UNL     1       1.557  -0.305  -1.902  1.00  0.00     0.139 A 
HETATM    3  C3  UNL     1       0.891  -0.429  -0.716  1.00  0.00     0.123 A 
HETATM    4  C4  UNL     1       1.125  -1.510   0.078  1.00  0.00     0.048 A 
HETATM    5  C5  UNL     1       2.001  -2.458  -0.326  1.00  0.00     0.107 A 
HETATM    6  C6  UNL     1       2.631  -2.287  -1.496  1.00  0.00     0.051 A 
HETATM    7  O1  UNL     1       2.317  -3.596   0.373  1.00  0.00    -0.273 OA
HETATM    8  C7  UNL     1       1.693  -3.776   1.561  1.00  0.00     0.300 A 
HETATM    9  C8  UNL     1       0.816  -2.855   2.018  1.00  0.00     0.069 A 
HETATM   10  C9  UNL     1       0.564  -1.766   1.278  1.00  0.00     0.009 A 
HETATM   11  O2  UNL     1       1.917  -4.765   2.230  1.00  0.00    -0.259 OA
ENDROOT
BRANCH   3  12
HETATM   12  O3  UNL     1       0.043   0.648  -0.510  1.00  0.00    -0.301 OA
BRANCH  12  13
HETATM   13  C10 UNL     1      -0.784   0.882   0.600  1.00  0.00     0.274 C 
HETATM   14  O4  UNL     1      -1.086   2.258   0.434  1.00  0.00    -0.326 OA
HETATM   15  C11 UNL     1      -1.883   2.782   1.466  1.00  0.00     0.184 C 
HETATM   16  C12 UNL     1      -3.209   2.034   1.532  1.00  0.00     0.215 C 
HETATM   17  C13 UNL     1      -3.029   0.528   1.564  1.00  0.00     0.220 C 
HETATM   18  O7  UNL     1      -3.960   2.400   2.663  1.00  0.00    -0.218 OA
HETATM   19  C14 UNL     1      -2.066   0.084   0.486  1.00  0.00     0.241 C 
HETATM   20  O6  UNL     1      -4.276  -0.079   1.333  1.00  0.00    -0.218 OA
HETATM   21  O5  UNL     1      -2.657   0.330  -0.770  1.00  0.00    -0.215 OA
BRANCH  15  22
HETATM   22  C15 UNL     1      -1.110   2.872   2.778  1.00  0.00     0.214 C 
HETATM   23  O8  UNL     1      -1.599   3.945   3.561  1.00  0.00    -0.218 OA
ENDBRANCH  15  22
ENDBRANCH  12  13
ENDBRANCH   3  12
BRANCH   2  24
HETATM   24  O9  UNL     1       1.237   0.837  -2.621  1.00  0.00    -0.324 OA
HETATM   25  C16 UNL     1       1.781   1.132  -3.884  1.00  0.00     0.182 C 
ENDBRANCH   2  24
BRANCH   1  26
HETATM   26  O10 UNL     1       3.135  -1.108  -3.496  1.00  0.00    -0.326 OA
HETATM   27  C17 UNL     1       4.150  -2.023  -3.836  1.00  0.00     0.181 C 
ENDBRANCH   1  26
TORSDOF 5
