REMARK  10 active torsions:
REMARK  status: ('A' for Active; 'I' for Inactive)
REMARK    1  A    between atoms: C5_5  and  C7_7 
REMARK    2  A    between atoms: C7_7  and  O1_8 
REMARK    3  A    between atoms: O1_8  and  C8_9 
REMARK    4  A    between atoms: C8_9  and  C9_10 
REMARK    5  A    between atoms: C13_14  and  O3_16 
REMARK    6  A    between atoms: O3_16  and  C14_17 
REMARK    7  A    between atoms: C21_25  and  C22_26 
REMARK    8  A    between atoms: C22_26  and  O5_27 
REMARK    9  A    between atoms: O5_27  and  C23_28 
REMARK   10  A    between atoms: C23_28  and  C24_30 
ROOT
HETATM    1  C14 UNL     1      -0.918  -1.418  -1.125  1.00  0.00     0.125 C 
HETATM    2  C15 UNL     1      -0.928  -1.707  -2.646  1.00  0.00     0.035 C 
HETATM    3  C16 UNL     1       0.137  -0.588  -2.758  1.00  0.00     0.067 C 
HETATM    4  C17 UNL     1       1.539  -0.918  -2.225  1.00  0.00     0.224 C 
HETATM    5  C18 UNL     1       1.520  -2.146  -1.273  1.00  0.00     0.089 C 
HETATM    6  C19 UNL     1       0.316  -1.893  -0.318  1.00  0.00     0.123 C 
HETATM    7  O4  UNL     1       0.621  -0.684   0.369  1.00  0.00    -0.333 OA
HETATM    8  C20 UNL     1       0.641   0.393  -0.561  1.00  0.00     0.242 C 
HETATM    9  C21 UNL     1      -0.518   0.035  -1.496  1.00  0.00     0.110 C 
HETATM   10  O7  UNL     1       1.764   0.221  -1.410  1.00  0.00    -0.308 OA
HETATM   11  C30 UNL     1       0.133  -3.012   0.703  1.00  0.00     0.032 C 
HETATM   12  O8  UNL     1       2.492  -1.066  -3.256  1.00  0.00    -0.195 OA
ENDROOT
BRANCH   1  13
HETATM   13  O3  UNL     1      -2.125  -1.611  -0.420  1.00  0.00    -0.331 OA
BRANCH  13  14
HETATM   14  C13 UNL     1      -1.846  -0.644   0.572  1.00  0.00     0.270 C 
HETATM   15  C12 UNL     1      -3.152   0.035   1.053  1.00  0.00     0.241 C 
HETATM   16  C11 UNL     1      -2.883   0.981   2.244  1.00  0.00     0.220 C 
HETATM   17  O9  UNL     1      -3.717   0.777  -0.018  1.00  0.00    -0.215 OA
HETATM   18  C10 UNL     1      -2.068   0.240   3.328  1.00  0.00     0.215 C 
HETATM   19  O10 UNL     1      -4.111   1.430   2.791  1.00  0.00    -0.218 OA
HETATM   20  C9  UNL     1      -0.816  -0.437   2.729  1.00  0.00     0.181 C 
HETATM   21  O11 UNL     1      -1.652   1.158   4.326  1.00  0.00    -0.218 OA
HETATM   22  O2  UNL     1      -1.211  -1.295   1.664  1.00  0.00    -0.326 OA
BRANCH  20  23
HETATM   23  C8  UNL     1      -0.064  -1.309   3.740  1.00  0.00     0.184 C 
BRANCH  23  24
HETATM   24  O1  UNL     1       1.303  -1.396   3.365  1.00  0.00    -0.296 OA
BRANCH  24  25
HETATM   25  C7  UNL     1       2.008  -2.156   4.199  1.00  0.00     0.296 C 
HETATM   26  O12 UNL     1       1.537  -2.713   5.164  1.00  0.00    -0.259 OA
BRANCH  25  27
HETATM   27  C5  UNL     1       3.457  -2.289   3.867  1.00  0.00     0.063 A 
HETATM   28  C4  UNL     1       3.983  -1.639   2.736  1.00  0.00     0.005 A 
HETATM   29  C3  UNL     1       5.348  -1.764   2.424  1.00  0.00     0.000 A 
HETATM   30  C2  UNL     1       6.188  -2.539   3.240  1.00  0.00     0.000 A 
HETATM   31  C1  UNL     1       5.664  -3.191   4.369  1.00  0.00     0.000 A 
HETATM   32  C6  UNL     1       4.299  -3.066   4.684  1.00  0.00     0.005 A 
ENDBRANCH  25  27
ENDBRANCH  24  25
ENDBRANCH  23  24
ENDBRANCH  20  23
ENDBRANCH  13  14
ENDBRANCH   1  13
BRANCH   9  33
HETATM   33  C22 UNL     1      -1.617   1.074  -1.711  1.00  0.00     0.160 C 
BRANCH  33  34
HETATM   34  O5  UNL     1      -1.238   1.951  -2.764  1.00  0.00    -0.298 OA
BRANCH  34  35
HETATM   35  C23 UNL     1      -2.158   2.883  -3.000  1.00  0.00     0.296 C 
HETATM   36  O6  UNL     1      -3.197   2.973  -2.391  1.00  0.00    -0.259 OA
BRANCH  35  37
HETATM   37  C24 UNL     1      -1.824   3.840  -4.096  1.00  0.00     0.063 A 
HETATM   38  C25 UNL     1      -2.725   4.867  -4.434  1.00  0.00     0.005 A 
HETATM   39  C26 UNL     1      -2.410   5.770  -5.465  1.00  0.00     0.000 A 
HETATM   40  C27 UNL     1      -1.195   5.645  -6.160  1.00  0.00     0.000 A 
HETATM   41  C28 UNL     1      -0.295   4.619  -5.824  1.00  0.00     0.000 A 
HETATM   42  C29 UNL     1      -0.607   3.717  -4.793  1.00  0.00     0.005 A 
ENDBRANCH  35  37
ENDBRANCH  34  35
ENDBRANCH  33  34
ENDBRANCH   9  33
TORSDOF 10
