REMARK  7 active torsions:
REMARK  status: ('A' for Active; 'I' for Inactive)
REMARK    1  A    between atoms: C1_1  and  O2_3 
REMARK    2  A    between atoms: O2_3  and  C2_4 
REMARK    3  A    between atoms: C7_10  and  C26_36 
REMARK    4  A    between atoms: C8_11  and  C25_34 
REMARK    5  A    between atoms: C13_17  and  O6_20 
REMARK    6  A    between atoms: O6_20  and  C15_21 
REMARK    7  A    between atoms: C17_24  and  C20_28 
ROOT
HETATM    1  C2  UNL     1      -3.949  -0.533  -1.356  1.00  0.00     0.247 C 
HETATM    2  O3  UNL     1      -4.059  -1.891  -1.013  1.00  0.00    -0.331 OA
HETATM    3  C3  UNL     1      -2.916  -2.654  -1.307  1.00  0.00     0.113 C 
HETATM    4  C4  UNL     1      -1.596  -1.951  -1.007  1.00  0.00    -0.007 C 
HETATM    5  C5  UNL     1      -1.533  -0.466  -0.709  1.00  0.00    -0.033 C 
HETATM    6  C6  UNL     1      -2.931   0.105  -0.431  1.00  0.00     0.084 C 
HETATM    7  C7  UNL     1      -0.366   0.022   0.236  1.00  0.00     0.107 C 
HETATM    8  C8  UNL     1       0.755  -1.090   0.418  1.00  0.00     0.100 C 
HETATM    9  C9  UNL     1       0.853  -1.843  -0.930  1.00  0.00     0.179 C 
HETATM   10  C10 UNL     1      -0.425  -2.582  -1.190  1.00  0.00     0.004 C 
HETATM   11  O4  UNL     1       1.947  -2.739  -0.943  1.00  0.00    -0.218 OA
HETATM   12  C11 UNL     1       2.124  -0.456   0.750  1.00  0.00     0.126 A 
HETATM   13  C12 UNL     1       2.613   0.831   0.075  1.00  0.00     0.062 C 
HETATM   14  C13 UNL     1       1.528   1.907   0.180  1.00  0.00     0.184 C 
HETATM   15  C14 UNL     1       0.233   1.314  -0.390  1.00  0.00     0.183 C 
HETATM   16  O5  UNL     1      -0.310   1.911  -1.293  1.00  0.00    -0.293 OA
HETATM   17  C17 UNL     1       3.963   1.155   0.782  1.00  0.00     0.032 C 
HETATM   18  C18 UNL     1       4.513  -0.264   1.063  1.00  0.00     0.037 C 
HETATM   19  C19 UNL     1       3.288  -1.155   1.227  1.00  0.00     0.141 A 
HETATM   20  O8  UNL     1       2.529  -0.641   2.287  1.00  0.00    -0.356 OA
HETATM   21  C24 UNL     1       2.947   0.619  -1.429  1.00  0.00     0.006 C 
HETATM   22  C27 UNL     1      -3.037  -3.907  -0.422  1.00  0.00     0.034 C 
HETATM   23  C28 UNL     1      -2.971  -3.084  -2.780  1.00  0.00     0.034 C 
ENDROOT
BRANCH  17  24
HETATM   24  C20 UNL     1       3.955   2.039   2.008  1.00  0.00     0.004 A 
HETATM   25  C21 UNL     1       3.092   2.146   3.031  1.00  0.00     0.118 A 
HETATM   26  O9  UNL     1       3.432   2.999   3.848  1.00  0.00    -0.303 OA
HETATM   27  C22 UNL     1       4.489   3.494   3.464  1.00  0.00     0.122 A 
HETATM   28  C23 UNL     1       4.894   2.949   2.312  1.00  0.00     0.025 A 
ENDBRANCH  17  24
BRANCH  14  29
HETATM   29  O6  UNL     1       1.995   3.053  -0.498  1.00  0.00    -0.297 OA
BRANCH  29  30
HETATM   30  C15 UNL     1       1.596   4.328  -0.226  1.00  0.00     0.273 C 
HETATM   31  O7  UNL     1       2.025   5.277  -0.849  1.00  0.00    -0.264 OA
HETATM   32  C16 UNL     1       0.619   4.512   0.918  1.00  0.00     0.106 C 
ENDBRANCH  29  30
ENDBRANCH  14  29
BRANCH   8  33
HETATM   33  C25 UNL     1       0.323  -2.189   1.445  1.00  0.00     0.188 C 
HETATM   34  O10 UNL     1       0.281  -1.782   2.799  1.00  0.00    -0.221 OA
ENDBRANCH   8  33
BRANCH   7  35
HETATM   35  C26 UNL     1      -0.869   0.487   1.621  1.00  0.00     0.193 C 
HETATM   36  O11 UNL     1      -1.526   1.735   1.565  1.00  0.00    -0.220 OA
ENDBRANCH   7  35
BRANCH   1  37
HETATM   37  O2  UNL     1      -5.223   0.008  -1.083  1.00  0.00    -0.275 OA
BRANCH  37  38
HETATM   38  C1  UNL     1      -6.276  -0.092  -1.946  1.00  0.00     0.274 C 
HETATM   39  O1  UNL     1      -7.365   0.375  -1.687  1.00  0.00    -0.264 OA
HETATM   40  C29 UNL     1      -6.024  -0.807  -3.262  1.00  0.00     0.106 C 
ENDBRANCH  37  38
ENDBRANCH   1  37
TORSDOF 7
