REMARK  1 active torsions:
REMARK  status: ('A' for Active; 'I' for Inactive)
REMARK    1  A    between atoms: C4_4  and  C9_10 
ROOT
HETATM    1  C1  UNL     1      -1.440   1.320  -0.412  1.00  0.00     0.026 A 
HETATM    2  C2  UNL     1      -1.230  -0.154  -0.691  1.00  0.00    -0.045 A 
HETATM    3  C3  UNL     1       0.133  -0.795  -0.736  1.00  0.00     0.027 C 
HETATM    4  C4  UNL     1       1.284  -0.069  -0.021  1.00  0.00     0.062 C 
HETATM    5  C5  UNL     1       1.001   0.149   1.474  1.00  0.00     0.155 C 
HETATM    6  C6  UNL     1      -0.387   0.685   1.836  1.00  0.00     0.033 C 
HETATM    7  C7  UNL     1      -0.833   1.837   0.915  1.00  0.00     0.007 C 
HETATM    8  C8  UNL     1      -1.695   2.855   1.684  1.00  0.00     0.000 C 
HETATM    9  O1  UNL     1       1.231  -1.047   2.178  1.00  0.00    -0.223 OA
HETATM   10  C12 UNL     1      -2.367  -0.809  -0.979  1.00  0.00     0.005 A 
HETATM   11  C13 UNL     1      -3.436   0.019  -0.922  1.00  0.00     0.169 A 
HETATM   12  C14 UNL     1      -2.977   1.410  -0.534  1.00  0.00     0.073 A 
HETATM   13  O3  UNL     1      -4.584  -0.288  -1.139  1.00  0.00    -0.292 OA
HETATM   14  C15 UNL     1      -2.505  -2.264  -1.339  1.00  0.00     0.033 C 
ENDROOT
BRANCH   4  15
HETATM   15  C9  UNL     1       2.669  -0.714  -0.304  1.00  0.00     0.130 C 
HETATM   16  C10 UNL     1       3.306  -0.114  -1.565  1.00  0.00     0.033 C 
HETATM   17  C11 UNL     1       2.654  -2.242  -0.437  1.00  0.00     0.033 C 
HETATM   18  O2  UNL     1       3.536  -0.421   0.763  1.00  0.00    -0.226 OA
ENDBRANCH   4  15
TORSDOF 1
