REMARK  5 active torsions:
REMARK  status: ('A' for Active; 'I' for Inactive)
REMARK    1  A    between atoms: C5_5  and  C7_7 
REMARK    2  A    between atoms: C7_7  and  O1_8 
REMARK    3  A    between atoms: O1_8  and  C8_9 
REMARK    4  A    between atoms: C8_9  and  C9_10 
REMARK    5  A    between atoms: C9_10  and  C10_11 
ROOT
HETATM    1  C10 UNL     1      -0.539   0.900   0.707  1.00  0.00    -0.027 A 
HETATM    2  C11 UNL     1      -0.652   2.307   0.604  1.00  0.00    -0.026 A 
HETATM    3  C12 UNL     1       0.549   3.158   0.529  1.00  0.00     0.031 C 
HETATM    4  C13 UNL     1      -1.934   2.906   0.572  1.00  0.00    -0.009 A 
HETATM    5  C14 UNL     1      -3.113   2.121   0.639  1.00  0.00    -0.020 A 
HETATM    6  C15 UNL     1      -2.988   0.732   0.740  1.00  0.00     0.026 A 
HETATM    7  C16 UNL     1      -1.711   0.107   0.777  1.00  0.00    -0.024 A 
HETATM    8  C17 UNL     1      -1.605  -1.359   0.891  1.00  0.00     0.031 C 
HETATM    9  C18 UNL     1      -4.283   0.064   0.799  1.00  0.00     0.172 A 
HETATM   10  C19 UNL     1      -5.348   1.148   0.727  1.00  0.00     0.066 A 
HETATM   11  C20 UNL     1      -4.578   2.514   0.623  1.00  0.00     0.034 A 
HETATM   12  C21 UNL     1      -6.256   1.131   1.953  1.00  0.00     0.009 C 
HETATM   13  O2  UNL     1      -4.467  -1.127   0.885  1.00  0.00    -0.291 OA
ENDROOT
BRANCH   1  14
HETATM   14  C9  UNL     1       0.793   0.264   0.742  1.00  0.00     0.059 C 
BRANCH  14  15
HETATM   15  C8  UNL     1       1.219  -0.225  -0.643  1.00  0.00     0.157 C 
BRANCH  15  16
HETATM   16  O1  UNL     1       2.475  -0.879  -0.547  1.00  0.00    -0.298 OA
BRANCH  16  17
HETATM   17  C7  UNL     1       2.902  -1.328  -1.725  1.00  0.00     0.296 C 
HETATM   18  O3  UNL     1       2.291  -1.197  -2.758  1.00  0.00    -0.259 OA
BRANCH  17  19
HETATM   19  C5  UNL     1       4.221  -2.029  -1.697  1.00  0.00     0.063 A 
HETATM   20  C4  UNL     1       4.770  -2.547  -2.885  1.00  0.00     0.005 A 
HETATM   21  C3  UNL     1       6.010  -3.205  -2.859  1.00  0.00     0.000 A 
HETATM   22  C2  UNL     1       6.705  -3.348  -1.646  1.00  0.00     0.000 A 
HETATM   23  C1  UNL     1       6.160  -2.832  -0.459  1.00  0.00     0.000 A 
HETATM   24  C6  UNL     1       4.918  -2.172  -0.482  1.00  0.00     0.005 A 
ENDBRANCH  17  19
ENDBRANCH  16  17
ENDBRANCH  15  16
ENDBRANCH  14  15
ENDBRANCH   1  14
TORSDOF 5
