REMARK  1 active torsions:
REMARK  status: ('A' for Active; 'I' for Inactive)
REMARK    1  A    between atoms: C11_11  and  C15_16 
ROOT
HETATM    1  C1  UNL     1      -0.437  -3.656  -0.954  1.00  0.00     0.000 C 
HETATM    2  C2  UNL     1      -1.848  -3.358  -0.442  1.00  0.00     0.000 C 
HETATM    3  C3  UNL     1      -2.326  -1.929  -0.782  1.00  0.00     0.000 C 
HETATM    4  C4  UNL     1      -1.224  -0.913  -0.362  1.00  0.00     0.004 C 
HETATM    5  C5  UNL     1       0.242  -1.167  -0.806  1.00  0.00     0.019 C 
HETATM    6  C6  UNL     1       0.577  -2.633  -0.423  1.00  0.00     0.004 C 
HETATM    7  C7  UNL     1       1.181  -0.159  -0.105  1.00  0.00    -0.027 A 
HETATM    8  C8  UNL     1       0.771   1.032   0.393  1.00  0.00    -0.028 A 
HETATM    9  C9  UNL     1      -0.689   1.437   0.266  1.00  0.00     0.026 C 
HETATM   10  C10 UNL     1      -1.569   0.554  -0.624  1.00  0.00     0.005 C 
HETATM   11  C11 UNL     1       1.644   1.875   1.009  1.00  0.00    -0.001 A 
HETATM   12  C12 UNL     1       2.954   1.548   1.079  1.00  0.00     0.127 A 
HETATM   13  C13 UNL     1       3.360   0.387   0.548  1.00  0.00     0.027 A 
HETATM   14  C14 UNL     1       2.491  -0.448  -0.027  1.00  0.00    -0.003 A 
HETATM   15  O1  UNL     1       3.895   2.348   1.650  1.00  0.00    -0.191 OA
HETATM   16  C18 UNL     1       0.534  -0.958  -2.311  1.00  0.00     0.004 C 
HETATM   17  C19 UNL     1      -2.752  -1.841  -2.263  1.00  0.00     0.000 C 
HETATM   18  C20 UNL     1      -3.620  -1.694   0.045  1.00  0.00     0.000 C 
ENDROOT
BRANCH  11  19
HETATM   19  C15 UNL     1       1.184   3.199   1.636  1.00  0.00     0.024 C 
HETATM   20  C16 UNL     1       1.443   3.267   3.153  1.00  0.00     0.005 C 
HETATM   21  C17 UNL     1       1.726   4.424   0.878  1.00  0.00     0.005 C 
ENDBRANCH  11  19
TORSDOF 1
