REMARK  2 active torsions:
REMARK  status: ('A' for Active; 'I' for Inactive)
REMARK    1  A    between atoms: C1_1  and  O7_29 
REMARK    2  A    between atoms: C6_6  and  O1_7 
ROOT
HETATM    1  C1  UNL     1       5.166  -0.274  -0.117  1.00  0.00     0.118 A 
HETATM    2  C2  UNL     1       4.453   0.716  -0.690  1.00  0.00     0.050 A 
HETATM    3  C3  UNL     1       3.125   0.886  -0.571  1.00  0.00     0.093 A 
HETATM    4  C4  UNL     1       2.474   0.021   0.230  1.00  0.00     0.012 A 
HETATM    5  C5  UNL     1       3.191  -0.921   0.866  1.00  0.00     0.024 A 
HETATM    6  C6  UNL     1       4.517  -1.115   0.724  1.00  0.00     0.116 A 
HETATM    7  C8  UNL     1       0.982   0.165   0.460  1.00  0.00     0.116 C 
HETATM    8  C9  UNL     1       0.395   1.118  -0.562  1.00  0.00     0.163 C 
HETATM    9  C10 UNL     1       1.278   2.341  -0.675  1.00  0.00     0.179 C 
HETATM   10  O2  UNL     1       2.523   1.952  -1.193  1.00  0.00    -0.328 OA
HETATM   11  O3  UNL     1      -0.884   1.453  -0.135  1.00  0.00    -0.330 OA
HETATM   12  C11 UNL     1      -1.726   0.380   0.051  1.00  0.00     0.101 A 
HETATM   13  C12 UNL     1      -1.263  -0.874   0.289  1.00  0.00     0.083 A 
HETATM   14  C13 UNL     1       0.082  -1.068   0.441  1.00  0.00     0.183 C 
HETATM   15  O4  UNL     1       0.592  -2.153   0.589  1.00  0.00    -0.291 OA
HETATM   16  C14 UNL     1      -2.120  -1.914   0.386  1.00  0.00     0.138 A 
HETATM   17  C15 UNL     1      -3.430  -1.652   0.254  1.00  0.00     0.052 A 
HETATM   18  C16 UNL     1      -3.941  -0.436   0.012  1.00  0.00     0.098 A 
HETATM   19  C17 UNL     1      -3.059   0.577  -0.087  1.00  0.00     0.045 A 
HETATM   20  C18 UNL     1      -3.546   1.804  -0.353  1.00  0.00     0.002 C 
HETATM   21  C19 UNL     1      -4.861   2.028  -0.441  1.00  0.00     0.001 C 
HETATM   22  C20 UNL     1      -5.878   0.951  -0.176  1.00  0.00     0.117 C 
HETATM   23  O5  UNL     1      -5.301  -0.324  -0.116  1.00  0.00    -0.331 OA
HETATM   24  C21 UNL     1      -6.922   0.937  -1.298  1.00  0.00     0.035 C 
HETATM   25  C22 UNL     1      -6.557   1.240   1.169  1.00  0.00     0.035 C 
HETATM   26  O6  UNL     1      -1.778  -3.211   0.643  1.00  0.00    -0.190 OA
ENDROOT
BRANCH   1  27
HETATM   27  O7  UNL     1       6.524  -0.296  -0.314  1.00  0.00    -0.326 OA
HETATM   28  C23 UNL     1       6.915  -0.890  -1.532  1.00  0.00     0.181 C 
ENDBRANCH   1  27
BRANCH   6  29
HETATM   29  O1  UNL     1       5.069  -2.122   1.487  1.00  0.00    -0.326 OA
HETATM   30  C7  UNL     1       6.447  -2.155   1.768  1.00  0.00     0.181 C 
ENDBRANCH   6  29
TORSDOF 2
