REMARK  4 active torsions:
REMARK  status: ('A' for Active; 'I' for Inactive)
REMARK    1  A    between atoms: C5_5  and  C7_7 
REMARK    2  A    between atoms: C7_7  and  O1_8 
REMARK    3  A    between atoms: O1_8  and  C8_9 
REMARK    4  A    between atoms: C14_15  and  C17_18 
ROOT
HETATM    1  C8  UNL     1      -1.053  -0.676  -0.941  1.00  0.00     0.127 C 
HETATM    2  C9  UNL     1       0.447  -0.303  -0.916  1.00  0.00     0.031 C 
HETATM    3  C10 UNL     1       0.820   0.637   0.260  1.00  0.00     0.009 C 
HETATM    4  C11 UNL     1      -0.023   1.938   0.217  1.00  0.00     0.033 C 
HETATM    5  C12 UNL     1      -1.529   1.557   0.184  1.00  0.00     0.130 C 
HETATM    6  C13 UNL     1      -1.914   0.596  -0.977  1.00  0.00     0.058 C 
HETATM    7  C14 UNL     1      -3.434   0.447  -0.768  1.00  0.00     0.062 C 
HETATM    8  C15 UNL     1      -3.857   1.891  -0.426  1.00  0.00     0.010 C 
HETATM    9  C16 UNL     1      -2.584   2.652  -0.018  1.00  0.00     0.031 C 
HETATM   10  C19 UNL     1      -1.779   1.234  -2.369  1.00  0.00     0.005 C 
HETATM   11  O3  UNL     1      -1.812   0.977   1.457  1.00  0.00    -0.226 OA
HETATM   12  C20 UNL     1       0.459   2.858  -0.924  1.00  0.00     0.028 C 
HETATM   13  C21 UNL     1       1.957   3.027  -0.969  1.00  0.00    -0.035 C 
HETATM   14  C22 UNL     1       2.811   2.172  -0.369  1.00  0.00    -0.046 C 
HETATM   15  C23 UNL     1       2.338   0.961   0.434  1.00  0.00     0.015 C 
HETATM   16  C24 UNL     1       3.221  -0.273   0.117  1.00  0.00     0.006 C 
HETATM   17  C25 UNL     1       4.725   0.008   0.225  1.00  0.00     0.034 C 
HETATM   18  C26 UNL     1       5.110   1.137  -0.740  1.00  0.00     0.156 C 
HETATM   19  C27 UNL     1       4.307   2.418  -0.463  1.00  0.00     0.055 C 
HETATM   20  O4  UNL     1       6.490   1.412  -0.609  1.00  0.00    -0.223 OA
HETATM   21  C28 UNL     1       2.568   1.354   1.900  1.00  0.00     0.004 C 
ENDROOT
BRANCH   1  22
HETATM   22  O1  UNL     1      -1.363  -1.465   0.199  1.00  0.00    -0.301 OA
BRANCH  22  23
HETATM   23  C7  UNL     1      -0.906  -2.709   0.096  1.00  0.00     0.296 C 
HETATM   24  O5  UNL     1      -0.381  -3.152  -0.900  1.00  0.00    -0.259 OA
BRANCH  23  25
HETATM   25  C5  UNL     1      -1.082  -3.557   1.313  1.00  0.00     0.063 A 
HETATM   26  C4  UNL     1      -0.635  -4.889   1.315  1.00  0.00     0.005 A 
HETATM   27  C3  UNL     1      -0.799  -5.686   2.461  1.00  0.00     0.000 A 
HETATM   28  C2  UNL     1      -1.412  -5.150   3.608  1.00  0.00     0.000 A 
HETATM   29  C1  UNL     1      -1.859  -3.818   3.606  1.00  0.00     0.000 A 
HETATM   30  C6  UNL     1      -1.695  -3.021   2.461  1.00  0.00     0.005 A 
ENDBRANCH  23  25
ENDBRANCH  22  23
ENDBRANCH   1  22
BRANCH   7  31
HETATM   31  C17 UNL     1      -4.207  -0.170  -1.910  1.00  0.00     0.151 C 
HETATM   32  O2  UNL     1      -5.018   0.475  -2.533  1.00  0.00    -0.296 OA
HETATM   33  C18 UNL     1      -3.938  -1.611  -2.248  1.00  0.00     0.072 C 
ENDBRANCH   7  31
TORSDOF 4
