REMARK  2 active torsions:
REMARK  status: ('A' for Active; 'I' for Inactive)
REMARK    1  A    between atoms: N2_3  and  C6_11 
REMARK    2  A    between atoms: C6_11  and  C7_12 
ROOT
HETATM    1  N1  UNL     1       2.238   1.483  -0.418  1.00  0.00    -0.209 NA
HETATM    2  C1  UNL     1       1.462   0.487  -0.539  1.00  0.00     0.156 C 
HETATM    3  N2  UNL     1       0.187   0.473  -0.501  1.00  0.00    -0.194 NA
HETATM    4  C2  UNL     1      -0.342   1.625  -0.576  1.00  0.00     0.148 A 
HETATM    5  C3  UNL     1       0.402   2.740  -0.506  1.00  0.00     0.149 A 
HETATM    6  C4  UNL     1       1.735   2.647  -0.387  1.00  0.00     0.205 C 
HETATM    7  N3  UNL     1       2.418   3.711  -0.295  1.00  0.00    -0.125 N 
HETATM    8  N4  UNL     1      -0.365   3.743  -0.583  1.00  0.00    -0.218 NA
HETATM    9  C5  UNL     1      -1.517   3.241  -0.736  1.00  0.00     0.200 A 
HETATM   10  N5  UNL     1      -1.545   1.976  -0.750  1.00  0.00    -0.210 NA
ENDROOT
BRANCH   3  11
HETATM   11  C6  UNL     1      -0.231  -0.124   0.839  1.00  0.00     0.110 C 
BRANCH  11  12
HETATM   12  C7  UNL     1       0.131  -1.586   0.971  1.00  0.00    -0.017 C 
HETATM   13  C8  UNL     1      -0.594  -2.625   0.520  1.00  0.00    -0.046 C 
HETATM   14  C9  UNL     1      -0.125  -4.049   0.710  1.00  0.00     0.026 C 
HETATM   15  C10 UNL     1      -1.911  -2.489  -0.206  1.00  0.00     0.026 C 
ENDBRANCH  11  12
ENDBRANCH   3  11
TORSDOF 2
