REMARK  7 active torsions:
REMARK  status: ('A' for Active; 'I' for Inactive)
REMARK    1  A    between atoms: C1_1  and  C43_52 
REMARK    2  A    between atoms: C5_5  and  O2_7 
REMARK    3  A    between atoms: O2_7  and  C6_8 
REMARK    4  A    between atoms: C21_23  and  C37_42 
REMARK    5  A    between atoms: C25_28  and  O4_33 
REMARK    6  A    between atoms: O4_33  and  C30_34 
REMARK    7  A    between atoms: C30_34  and  C31_36 
ROOT
HETATM    1  C6  UNL     1      -4.969   0.260   0.682  1.00  0.00     0.118 C 
HETATM    2  C7  UNL     1      -4.254   1.594   0.359  1.00  0.00     0.025 C 
HETATM    3  C8  UNL     1      -2.709   1.416   0.514  1.00  0.00     0.002 C 
HETATM    4  C9  UNL     1      -2.117   0.207  -0.279  1.00  0.00     0.001 C 
HETATM    5  C10 UNL     1      -2.949  -1.076  -0.020  1.00  0.00     0.003 C 
HETATM    6  C11 UNL     1      -4.457  -0.885  -0.203  1.00  0.00     0.030 C 
HETATM    7  C12 UNL     1      -0.623  -0.100   0.135  1.00  0.00     0.005 C 
HETATM    8  C13 UNL     1       0.117   1.047   0.867  1.00  0.00     0.004 C 
HETATM    9  C14 UNL     1      -0.717   1.588   2.070  1.00  0.00     0.000 C 
HETATM   10  C15 UNL     1      -2.231   1.356   1.971  1.00  0.00     0.000 C 
HETATM   11  C16 UNL     1       1.521   0.549   1.371  1.00  0.00     0.017 C 
HETATM   12  C17 UNL     1       2.305  -0.258   0.336  1.00  0.00    -0.049 C 
HETATM   13  C18 UNL     1       1.701  -0.768  -0.762  1.00  0.00    -0.035 C 
HETATM   14  C19 UNL     1       0.232  -0.596  -1.055  1.00  0.00     0.025 C 
HETATM   15  C20 UNL     1       3.791  -0.500   0.611  1.00  0.00     0.023 C 
HETATM   16  C21 UNL     1       4.537   0.809   0.975  1.00  0.00     0.065 C 
HETATM   17  C22 UNL     1       3.816   1.438   2.195  1.00  0.00     0.155 C 
HETATM   18  C23 UNL     1       2.348   1.764   1.879  1.00  0.00     0.037 C 
HETATM   19  O3  UNL     1       4.463   2.629   2.607  1.00  0.00    -0.223 OA
HETATM   20  C24 UNL     1       6.014   0.494   1.330  1.00  0.00     0.035 C 
HETATM   21  C25 UNL     1       6.750  -0.326   0.258  1.00  0.00     0.125 C 
HETATM   22  C26 UNL     1       6.006  -1.627  -0.090  1.00  0.00     0.026 C 
HETATM   23  C27 UNL     1       4.549  -1.307  -0.473  1.00  0.00     0.006 C 
HETATM   24  C28 UNL     1       6.703  -2.336  -1.258  1.00  0.00     0.002 C 
HETATM   25  C29 UNL     1       6.031  -2.576   1.115  1.00  0.00     0.002 C 
HETATM   26  C38 UNL     1       1.357  -0.449   2.531  1.00  0.00     0.004 C 
HETATM   27  C39 UNL     1       0.291   2.190  -0.156  1.00  0.00     0.000 C 
HETATM   28  C40 UNL     1      -2.225   0.541  -1.777  1.00  0.00     0.000 C 
HETATM   29  C41 UNL     1      -4.584   2.047  -1.072  1.00  0.00     0.002 C 
HETATM   30  C42 UNL     1      -4.762   2.705   1.289  1.00  0.00     0.002 C 
ENDROOT
BRANCH   1  31
HETATM   31  O2  UNL     1      -6.369   0.383   0.504  1.00  0.00    -0.332 OA
BRANCH  31  32
HETATM   32  C5  UNL     1      -7.092  -0.727   0.994  1.00  0.00     0.270 C 
HETATM   33  C4  UNL     1      -8.416  -0.264   1.656  1.00  0.00     0.241 C 
HETATM   34  C3  UNL     1      -9.285  -1.475   2.062  1.00  0.00     0.221 C 
HETATM   35  O7  UNL     1      -8.119   0.512   2.809  1.00  0.00    -0.215 OA
HETATM   36  C2  UNL     1      -9.432  -2.443   0.867  1.00  0.00     0.223 C 
HETATM   37  O8  UNL     1     -10.565  -1.029   2.482  1.00  0.00    -0.218 OA
HETATM   38  C1  UNL     1      -8.057  -2.793   0.252  1.00  0.00     0.237 C 
HETATM   39  O9  UNL     1     -10.061  -3.639   1.299  1.00  0.00    -0.217 OA
HETATM   40  O1  UNL     1      -7.377  -1.594  -0.094  1.00  0.00    -0.318 OA
BRANCH  38  41
HETATM   41  C43 UNL     1      -8.162  -3.637  -0.996  1.00  0.00     0.217 C 
HETATM   42  O10 UNL     1      -7.172  -4.506  -1.176  1.00  0.00    -0.646 OA
HETATM   43  O11 UNL     1      -9.092  -3.508  -1.756  1.00  0.00    -0.646 OA
ENDBRANCH  38  41
ENDBRANCH  31  32
ENDBRANCH   1  31
BRANCH  16  44
HETATM   44  C37 UNL     1       4.494   1.775  -0.223  1.00  0.00     0.185 C 
HETATM   45  O6  UNL     1       3.627   1.236  -1.195  1.00  0.00    -0.221 OA
ENDBRANCH  16  44
BRANCH  21  46
HETATM   46  O4  UNL     1       6.904   0.465  -0.914  1.00  0.00    -0.301 OA
BRANCH  46  47
HETATM   47  C30 UNL     1       8.045   0.215  -1.549  1.00  0.00     0.296 C 
HETATM   48  O5  UNL     1       9.002  -0.312  -1.031  1.00  0.00    -0.259 OA
BRANCH  47  49
HETATM   49  C31 UNL     1       8.082   0.633  -2.983  1.00  0.00     0.063 A 
HETATM   50  C32 UNL     1       9.248   0.434  -3.744  1.00  0.00     0.005 A 
HETATM   51  C33 UNL     1       9.281   0.828  -5.094  1.00  0.00     0.000 A 
HETATM   52  C34 UNL     1       8.150   1.420  -5.682  1.00  0.00     0.000 A 
HETATM   53  C35 UNL     1       6.986   1.617  -4.922  1.00  0.00     0.000 A 
HETATM   54  C36 UNL     1       6.951   1.225  -3.572  1.00  0.00     0.005 A 
ENDBRANCH  47  49
ENDBRANCH  46  47
ENDBRANCH  21  46
TORSDOF 7
