REMARK  11 active torsions:
REMARK  status: ('A' for Active; 'I' for Inactive)
REMARK    1  A    between atoms: C1_1  and  O10_38 
REMARK    2  A    between atoms: C2_2  and  O8_34 
REMARK    3  A    between atoms: C4_4  and  C24_30 
REMARK    4  A    between atoms: C8_8  and  O3_17 
REMARK    5  A    between atoms: C10_10  and  O1_13 
REMARK    6  A    between atoms: O1_13  and  C13_14 
REMARK    7  A    between atoms: O3_17  and  C15_18 
REMARK    8  A    between atoms: C19_23  and  O5_26 
REMARK    9  A    between atoms: O5_26  and  C22_27 
REMARK   10  A    between atoms: O8_34  and  C27_35 
REMARK   11  A    between atoms: O10_38  and  C29_39 
ROOT
HETATM    1  C1  UNL     1       1.426   0.319   1.045  1.00  0.00     0.158 C 
HETATM    2  C2  UNL     1       0.035   0.938   1.258  1.00  0.00     0.170 C 
HETATM    3  C3  UNL     1      -1.124  -0.044   1.126  1.00  0.00    -0.018 C 
HETATM    4  C4  UNL     1      -1.006  -1.575   1.096  1.00  0.00     0.046 C 
HETATM    5  C5  UNL     1       0.082  -2.095   0.114  1.00  0.00     0.011 C 
HETATM    6  C6  UNL     1       0.551  -1.045  -0.913  1.00  0.00     0.026 C 
HETATM    7  C7  UNL     1       1.730  -0.165  -0.408  1.00  0.00     0.058 C 
HETATM    8  C8  UNL     1       1.923   0.989  -1.439  1.00  0.00     0.130 C 
HETATM    9  C9  UNL     1       2.011   0.529  -2.906  1.00  0.00     0.065 C 
HETATM   10  C10 UNL     1       0.884  -0.411  -3.343  1.00  0.00     0.145 C 
HETATM   11  C11 UNL     1       0.857  -1.530  -2.315  1.00  0.00    -0.017 C 
HETATM   12  C12 UNL     1       1.151  -2.799  -2.639  1.00  0.00    -0.007 C 
HETATM   13  C17 UNL     1       3.039  -1.001  -0.357  1.00  0.00     0.005 C 
HETATM   14  C18 UNL     1      -2.365  -1.861   0.366  1.00  0.00     0.041 C 
HETATM   15  C19 UNL     1      -3.361  -0.808   0.848  1.00  0.00     0.142 C 
HETATM   16  C20 UNL     1      -2.409   0.346   1.027  1.00  0.00    -0.022 C 
HETATM   17  C21 UNL     1      -2.970   1.739   1.071  1.00  0.00     0.028 C 
ENDROOT
BRANCH   1  18
HETATM   18  O10 UNL     1       2.405   1.242   1.437  1.00  0.00    -0.301 OA
BRANCH  18  19
HETATM   19  C29 UNL     1       3.224   1.137   2.522  1.00  0.00     0.272 C 
HETATM   20  O11 UNL     1       4.038   1.999   2.780  1.00  0.00    -0.264 OA
HETATM   21  C30 UNL     1       3.094  -0.103   3.384  1.00  0.00     0.106 C 
ENDBRANCH  18  19
ENDBRANCH   1  18
BRANCH   2  22
HETATM   22  O8  UNL     1      -0.028   1.534   2.535  1.00  0.00    -0.298 OA
BRANCH  22  23
HETATM   23  C27 UNL     1       0.143   2.866   2.790  1.00  0.00     0.273 C 
HETATM   24  O9  UNL     1       0.084   3.299   3.922  1.00  0.00    -0.264 OA
HETATM   25  C28 UNL     1       0.405   3.791   1.613  1.00  0.00     0.106 C 
ENDBRANCH  22  23
ENDBRANCH   2  22
BRANCH   8  26
HETATM   26  O3  UNL     1       3.095   1.709  -1.164  1.00  0.00    -0.304 OA
BRANCH  26  27
HETATM   27  C15 UNL     1       3.084   3.065  -1.262  1.00  0.00     0.272 C 
HETATM   28  C16 UNL     1       4.431   3.622  -0.848  1.00  0.00     0.106 C 
HETATM   29  O4  UNL     1       2.136   3.730  -1.613  1.00  0.00    -0.264 OA
ENDBRANCH  26  27
ENDBRANCH   8  26
BRANCH   4  30
HETATM   30  C24 UNL     1      -0.992  -2.216   2.530  1.00  0.00     0.130 C 
HETATM   31  O7  UNL     1      -2.129  -3.028   2.700  1.00  0.00    -0.226 OA
HETATM   32  C25 UNL     1      -1.066  -1.197   3.675  1.00  0.00     0.033 C 
HETATM   33  C26 UNL     1       0.193  -3.146   2.832  1.00  0.00     0.033 C 
ENDBRANCH   4  30
BRANCH  15  34
HETATM   34  O5  UNL     1      -4.346  -0.528  -0.115  1.00  0.00    -0.300 OA
BRANCH  34  35
HETATM   35  C22 UNL     1      -5.265  -1.498  -0.362  1.00  0.00     0.273 C 
HETATM   36  C23 UNL     1      -6.171  -1.081  -1.503  1.00  0.00     0.106 C 
HETATM   37  O6  UNL     1      -5.344  -2.553   0.226  1.00  0.00    -0.264 OA
ENDBRANCH  34  35
ENDBRANCH  15  34
BRANCH  10  38
HETATM   38  O1  UNL     1      -0.353   0.262  -3.354  1.00  0.00    -0.300 OA
BRANCH  38  39
HETATM   39  C13 UNL     1      -0.799   1.026  -4.391  1.00  0.00     0.273 C 
HETATM   40  O2  UNL     1      -1.817   1.680  -4.307  1.00  0.00    -0.264 OA
HETATM   41  C14 UNL     1      -0.005   0.968  -5.683  1.00  0.00     0.106 C 
ENDBRANCH  38  39
ENDBRANCH  10  38
TORSDOF 11
