REMARK  8 active torsions:
REMARK  status: ('A' for Active; 'I' for Inactive)
REMARK    1  A    between atoms: C1_1  and  O9_30 
REMARK    2  A    between atoms: C2_2  and  O7_26 
REMARK    3  A    between atoms: C6_6  and  O1_7 
REMARK    4  A    between atoms: O1_7  and  C7_8 
REMARK    5  A    between atoms: C11_13  and  C12_15 
REMARK    6  A    between atoms: C15_18  and  O4_21 
REMARK    7  A    between atoms: O4_21  and  C18_22 
REMARK    8  A    between atoms: O7_26  and  C20_27 
ROOT
HETATM    1  C1  UNL     1      -2.511   2.495  -0.108  1.00  0.00     0.140 A 
HETATM    2  C2  UNL     1      -2.966   1.247  -0.374  1.00  0.00     0.129 A 
HETATM    3  C3  UNL     1      -2.068   0.247  -0.389  1.00  0.00     0.052 A 
HETATM    4  C4  UNL     1      -0.758   0.408  -0.154  1.00  0.00     0.107 A 
HETATM    5  C5  UNL     1      -0.325   1.653   0.110  1.00  0.00     0.087 A 
HETATM    6  C6  UNL     1      -1.185   2.702   0.122  1.00  0.00     0.132 A 
HETATM    7  C9  UNL     1       1.008   1.810   0.362  1.00  0.00     0.202 A 
HETATM    8  C10 UNL     1       1.822   0.722   0.313  1.00  0.00     0.067 A 
HETATM    9  C11 UNL     1       1.381  -0.520   0.039  1.00  0.00     0.103 A 
HETATM   10  O3  UNL     1       0.045  -0.696  -0.186  1.00  0.00    -0.307 OA
HETATM   11  O6  UNL     1       1.530   2.868   0.636  1.00  0.00    -0.286 OA
ENDROOT
BRANCH   9  12
HETATM   12  C12 UNL     1       2.207  -1.598  -0.015  1.00  0.00     0.023 A 
HETATM   13  C13 UNL     1       1.685  -2.816  -0.272  1.00  0.00     0.004 A 
HETATM   14  C14 UNL     1       2.441  -3.922  -0.347  1.00  0.00     0.025 A 
HETATM   15  C15 UNL     1       3.774  -3.896  -0.183  1.00  0.00     0.103 A 
HETATM   16  C16 UNL     1       4.299  -2.687   0.089  1.00  0.00     0.025 A 
HETATM   17  C17 UNL     1       3.543  -1.579   0.170  1.00  0.00     0.004 A 
BRANCH  15  18
HETATM   18  O4  UNL     1       4.500  -5.055  -0.275  1.00  0.00    -0.276 OA
BRANCH  18  19
HETATM   19  C18 UNL     1       5.821  -4.941  -0.586  1.00  0.00     0.277 C 
HETATM   20  C19 UNL     1       6.696  -5.523   0.506  1.00  0.00     0.107 C 
HETATM   21  O5  UNL     1       6.236  -4.449  -1.612  1.00  0.00    -0.264 OA
ENDBRANCH  18  19
ENDBRANCH  15  18
ENDBRANCH   9  12
BRANCH   6  22
HETATM   22  O1  UNL     1      -0.709   3.968   0.397  1.00  0.00    -0.274 OA
BRANCH  22  23
HETATM   23  C7  UNL     1      -1.205   5.029  -0.298  1.00  0.00     0.277 C 
HETATM   24  O2  UNL     1      -1.295   5.068  -1.506  1.00  0.00    -0.264 OA
HETATM   25  C8  UNL     1      -1.587   6.160   0.637  1.00  0.00     0.107 C 
ENDBRANCH  22  23
ENDBRANCH   6  22
BRANCH   2  26
HETATM   26  O7  UNL     1      -4.298   1.022  -0.620  1.00  0.00    -0.274 OA
BRANCH  26  27
HETATM   27  C20 UNL     1      -4.693  -0.197  -1.080  1.00  0.00     0.277 C 
HETATM   28  C21 UNL     1      -5.425  -0.973  -0.002  1.00  0.00     0.107 C 
HETATM   29  O8  UNL     1      -4.496  -0.598  -2.206  1.00  0.00    -0.264 OA
ENDBRANCH  26  27
ENDBRANCH   2  26
BRANCH   1  30
HETATM   30  O9  UNL     1      -3.345   3.590  -0.008  1.00  0.00    -0.324 OA
HETATM   31  C22 UNL     1      -4.659   3.461   0.480  1.00  0.00     0.182 C 
ENDBRANCH   1  30
TORSDOF 8
