REMARK  2 active torsions:
REMARK  status: ('A' for Active; 'I' for Inactive)
REMARK    1  A    between atoms: C10_11  and  O2_13 
REMARK    2  A    between atoms: O2_13  and  C12_14 
ROOT
HETATM    1  C1  UNL     1      -0.694   2.003   2.435  1.00  0.00    -0.046 C 
HETATM    2  C2  UNL     1      -1.161   0.590   2.640  1.00  0.00     0.022 C 
HETATM    3  C3  UNL     1      -1.865   0.018   1.402  1.00  0.00     0.007 C 
HETATM    4  C4  UNL     1      -1.197   0.294   0.025  1.00  0.00     0.034 C 
HETATM    5  C5  UNL     1      -1.051   1.837  -0.059  1.00  0.00     0.137 C 
HETATM    6  C6  UNL     1      -0.643   2.547   1.210  1.00  0.00    -0.006 C 
HETATM    7  O1  UNL     1      -0.245   2.255  -1.134  1.00  0.00    -0.352 OA
HETATM    8  C7  UNL     1       0.990   1.581  -1.213  1.00  0.00     0.145 C 
HETATM    9  C8  UNL     1       1.245   0.609  -0.085  1.00  0.00     0.147 A 
HETATM   10  C9  UNL     1       0.175  -0.453  -0.228  1.00  0.00     0.056 C 
HETATM   11  C10 UNL     1       0.482  -0.760  -1.737  1.00  0.00     0.129 C 
HETATM   12  C11 UNL     1       0.880   0.591  -2.381  1.00  0.00     0.062 C 
HETATM   13  C14 UNL     1       0.309  -1.733   0.620  1.00  0.00     0.005 C 
HETATM   14  O4  UNL     1       1.786   1.089   1.322  1.00  0.00    -0.351 OA
HETATM   15  C15 UNL     1       2.565   0.360   0.403  1.00  0.00     0.172 A 
HETATM   16  C16 UNL     1      -2.256  -0.140  -1.025  1.00  0.00     0.003 C 
HETATM   17  C17 UNL     1      -0.223   2.739   3.664  1.00  0.00     0.026 C 
ENDROOT
BRANCH  11  18
HETATM   18  O2  UNL     1       1.594  -1.607  -1.874  1.00  0.00    -0.304 OA
BRANCH  18  19
HETATM   19  C12 UNL     1       1.531  -2.933  -2.192  1.00  0.00     0.272 C 
HETATM   20  O3  UNL     1       2.528  -3.621  -2.247  1.00  0.00    -0.264 OA
HETATM   21  C13 UNL     1       0.163  -3.517  -2.496  1.00  0.00     0.106 C 
ENDBRANCH  18  19
ENDBRANCH  11  18
TORSDOF 2
