REMARK  2 active torsions:
REMARK  status: ('A' for Active; 'I' for Inactive)
REMARK    1  A    between atoms: C3_5  and  C4_6 
REMARK    2  A    between atoms: C4_6  and  C5_7 
ROOT
HETATM    1  C1  UNL     1      -0.974   1.328  -0.151  1.00  0.00     0.127 C 
HETATM    2  C2  UNL     1      -2.266   0.907  -0.791  1.00  0.00     0.281 C 
HETATM    3  N1  UNL     1      -2.225  -0.428  -1.025  1.00  0.00    -0.093 NA
HETATM    4  O1  UNL     1      -1.090  -0.994  -0.662  1.00  0.00    -0.234 OA
HETATM    5  C3  UNL     1      -0.165   0.042  -0.407  1.00  0.00     0.204 C 
HETATM    6  O4  UNL     1      -3.219   1.595  -1.063  1.00  0.00    -0.268 OA
ENDROOT
BRANCH   5   7
HETATM    7  C4  UNL     1       0.762  -0.331   0.755  1.00  0.00     0.417 C 
HETATM    8  N2  UNL     1       1.622   0.819   1.083  1.00  0.00     0.630 N 
BRANCH   7   9
HETATM    9  C5  UNL     1       1.657  -1.543   0.565  1.00  0.00     0.226 C 
HETATM   10  O2  UNL     1       1.406  -2.236  -0.559  1.00  0.00    -0.646 OA
HETATM   11  O3  UNL     1       2.524  -1.884   1.334  1.00  0.00    -0.646 OA
ENDBRANCH   7   9
ENDBRANCH   5   7
TORSDOF 2
