REMARK  4 active torsions:
REMARK  status: ('A' for Active; 'I' for Inactive)
REMARK    1  A    between atoms: C2_2  and  C20_25 
REMARK    2  A    between atoms: C3_3  and  C18_22 
REMARK    3  A    between atoms: C20_25  and  O6_26 
REMARK    4  A    between atoms: O6_26  and  C21_27 
ROOT
HETATM    1  C1  UNL     1      -2.622   0.220  -0.991  1.00  0.00     0.003 C 
HETATM    2  C2  UNL     1      -1.798   1.294  -0.260  1.00  0.00     0.035 C 
HETATM    3  C3  UNL     1      -0.953   0.630   0.881  1.00  0.00     0.070 C 
HETATM    4  C4  UNL     1      -0.332  -0.809   0.682  1.00  0.00     0.038 C 
HETATM    5  C5  UNL     1      -1.004  -1.630  -0.450  1.00  0.00     0.003 C 
HETATM    6  C6  UNL     1      -1.732  -0.880  -1.569  1.00  0.00     0.000 C 
HETATM    7  C7  UNL     1      -0.526  -1.641   1.984  1.00  0.00     0.152 C 
HETATM    8  O1  UNL     1      -0.097  -2.970   1.883  1.00  0.00    -0.301 OA
HETATM    9  C8  UNL     1       1.024  -3.304   1.205  1.00  0.00     0.278 C 
HETATM   10  C9  UNL     1       1.919  -2.148   0.760  1.00  0.00     0.132 C 
HETATM   11  C10 UNL     1       1.228  -0.772   0.595  1.00  0.00     0.049 C 
HETATM   12  C11 UNL     1       1.907   0.043  -0.508  1.00  0.00     0.153 C 
HETATM   13  C12 UNL     1       3.425  -0.109  -0.419  1.00  0.00     0.033 C 
HETATM   14  C13 UNL     1       3.879  -1.552  -0.068  1.00  0.00     0.010 C 
HETATM   15  C14 UNL     1       2.802  -2.593  -0.379  1.00  0.00     0.017 C 
HETATM   16  C15 UNL     1       4.439  -1.622   1.520  1.00  0.00     0.058 C 
HETATM   17  C16 UNL     1       3.130  -1.974   1.682  1.00  0.00     0.158 C 
HETATM   18  O2  UNL     1       2.858  -2.180   2.847  1.00  0.00    -0.296 OA
HETATM   19  C17 UNL     1       5.617  -1.236   0.985  1.00  0.00     0.008 C 
HETATM   20  O3  UNL     1       1.484  -0.363  -1.784  1.00  0.00    -0.223 OA
HETATM   21  O4  UNL     1       1.320  -4.463   1.003  1.00  0.00    -0.264 OA
HETATM   22  C19 UNL     1      -0.887   2.048  -1.262  1.00  0.00     0.003 C 
ENDROOT
BRANCH   3  23
HETATM   23  C18 UNL     1      -1.697   0.755   2.212  1.00  0.00     0.207 C 
HETATM   24  O5  UNL     1      -1.231   1.349   3.156  1.00  0.00    -0.288 OA
ENDBRANCH   3  23
BRANCH   2  25
HETATM   25  C20 UNL     1      -2.776   2.366   0.296  1.00  0.00     0.152 C 
BRANCH  25  26
HETATM   26  O6  UNL     1      -3.426   3.049  -0.747  1.00  0.00    -0.302 OA
BRANCH  26  27
HETATM   27  C21 UNL     1      -4.302   4.027  -0.390  1.00  0.00     0.272 C 
HETATM   28  C22 UNL     1      -4.899   4.670  -1.625  1.00  0.00     0.106 C 
HETATM   29  O7  UNL     1      -4.563   4.341   0.749  1.00  0.00    -0.264 OA
ENDBRANCH  26  27
ENDBRANCH  25  26
ENDBRANCH   2  25
TORSDOF 4
