REMARK  2 active torsions:
REMARK  status: ('A' for Active; 'I' for Inactive)
REMARK    1  A    between atoms: C9_12  and  O6_18 
REMARK    2  A    between atoms: C10_13  and  O5_16 
ROOT
HETATM    1  C1  UNL     1      -2.710  -0.773  -0.066  1.00  0.00     0.146 A 
HETATM    2  O1  UNL     1      -3.846  -1.243  -0.101  1.00  0.00    -0.297 OA
HETATM    3  C2  UNL     1      -4.771  -0.155  -0.118  1.00  0.00     0.304 A 
HETATM    4  O2  UNL     1      -3.905   0.978  -0.076  1.00  0.00    -0.297 OA
HETATM    5  C3  UNL     1      -2.752   0.558  -0.050  1.00  0.00     0.146 A 
HETATM    6  C4  UNL     1      -1.644   1.305  -0.010  1.00  0.00     0.159 A 
HETATM    7  C5  UNL     1      -0.460   0.643   0.013  1.00  0.00     0.074 A 
HETATM    8  C6  UNL     1      -0.410  -0.712  -0.007  1.00  0.00     0.074 A 
HETATM    9  C7  UNL     1      -1.552  -1.452  -0.051  1.00  0.00     0.159 A 
HETATM   10  O3  UNL     1      -1.654  -2.814  -0.071  1.00  0.00    -0.188 OA
HETATM   11  C8  UNL     1       0.808  -1.326   0.014  1.00  0.00     0.222 A 
HETATM   12  C9  UNL     1       1.960  -0.599   0.060  1.00  0.00     0.158 A 
HETATM   13  C10 UNL     1       1.902   0.751   0.081  1.00  0.00     0.158 A 
HETATM   14  C11 UNL     1       0.691   1.373   0.056  1.00  0.00     0.222 A 
HETATM   15  O4  UNL     1       0.651   2.583   0.073  1.00  0.00    -0.284 OA
HETATM   16  O7  UNL     1       0.889  -2.530  -0.008  1.00  0.00    -0.284 OA
HETATM   17  O8  UNL     1      -1.799   2.660   0.006  1.00  0.00    -0.188 OA
ENDROOT
BRANCH  12  18
HETATM   18  O6  UNL     1       3.229  -1.148   0.090  1.00  0.00    -0.323 OA
HETATM   19  C13 UNL     1       3.460  -2.537   0.091  1.00  0.00     0.182 C 
ENDBRANCH  12  18
BRANCH  13  20
HETATM   20  O5  UNL     1       3.117   1.411   0.128  1.00  0.00    -0.323 OA
HETATM   21  C12 UNL     1       3.219   2.814   0.153  1.00  0.00     0.182 C 
ENDBRANCH  13  20
TORSDOF 2
