REMARK  4 active torsions:
REMARK  status: ('A' for Active; 'I' for Inactive)
REMARK    1  A    between atoms: C7_7  and  C9_9 
REMARK    2  A    between atoms: C15_15  and  C17_18 
REMARK    3  A    between atoms: C17_18  and  C18_19 
REMARK    4  A    between atoms: C18_19  and  C19_20 
ROOT
HETATM    1  C1  UNL     1      -2.070  -1.971   1.045  1.00  0.00     0.068 C 
HETATM    2  C2  UNL     1      -1.319  -3.119   0.414  1.00  0.00     0.184 C 
HETATM    3  C3  UNL     1      -0.391  -2.584  -0.654  1.00  0.00     0.225 C 
HETATM    4  C4  UNL     1      -0.574  -1.062  -0.648  1.00  0.00     0.094 C 
HETATM    5  C5  UNL     1      -1.230  -0.724   0.710  1.00  0.00     0.018 C 
HETATM    6  C6  UNL     1      -2.040   0.582   0.541  1.00  0.00     0.004 C 
HETATM    7  C7  UNL     1      -2.471   0.527  -0.946  1.00  0.00     0.019 C 
HETATM    8  C8  UNL     1      -1.512  -0.436  -1.689  1.00  0.00     0.015 C 
HETATM    9  C12 UNL     1      -1.165   1.812   0.869  1.00  0.00     0.000 C 
HETATM   10  C13 UNL     1      -3.237   0.650   1.516  1.00  0.00     0.000 C 
HETATM   11  C14 UNL     1       0.871  -0.563  -0.731  1.00  0.00     0.180 C 
HETATM   12  C15 UNL     1       1.734  -1.570  -0.433  1.00  0.00     0.093 C 
HETATM   13  C16 UNL     1       1.067  -2.731  -0.335  1.00  0.00     0.149 C 
HETATM   14  O1  UNL     1       1.556  -3.968  -0.072  1.00  0.00    -0.192 OA
HETATM   15  O3  UNL     1       1.177   0.578  -0.976  1.00  0.00    -0.291 OA
HETATM   16  O4  UNL     1      -0.641  -3.179  -1.909  1.00  0.00    -0.211 OA
HETATM   17  O5  UNL     1      -1.469  -4.293   0.659  1.00  0.00    -0.293 OA
ENDROOT
BRANCH  12  18
HETATM   18  C17 UNL     1       3.077  -1.456  -0.242  1.00  0.00     0.177 C 
HETATM   19  O2  UNL     1       3.737  -2.443  -0.001  1.00  0.00    -0.291 OA
BRANCH  18  20
HETATM   20  C18 UNL     1       3.811  -0.120  -0.287  1.00  0.00     0.069 C 
BRANCH  20  21
HETATM   21  C19 UNL     1       3.598   0.756   0.964  1.00  0.00     0.008 C 
HETATM   22  C20 UNL     1       3.958   0.006   2.257  1.00  0.00     0.001 C 
HETATM   23  C21 UNL     1       4.416   2.055   0.853  1.00  0.00     0.001 C 
ENDBRANCH  20  21
ENDBRANCH  18  20
ENDBRANCH  12  18
BRANCH   7  24
HETATM   24  C9  UNL     1      -2.698   1.871  -1.612  1.00  0.00    -0.044 C 
HETATM   25  C10 UNL     1      -4.102   2.428  -1.543  1.00  0.00     0.026 C 
HETATM   26  C11 UNL     1      -1.718   2.575  -2.202  1.00  0.00    -0.009 C 
ENDBRANCH   7  24
TORSDOF 4
