REMARK  5 active torsions:
REMARK  status: ('A' for Active; 'I' for Inactive)
REMARK    1  A    between atoms: C2_2  and  C3_3 
REMARK    2  A    between atoms: C4_4  and  C5_5 
REMARK    3  A    between atoms: C6_6  and  C7_7 
REMARK    4  A    between atoms: C8_8  and  C9_9 
REMARK    5  A    between atoms: C10_10  and  C11_11 
ROOT
HETATM    1  C7  UNL     1       0.151   0.584   0.000  1.00  0.00    -0.000 C 
HETATM    2  C8  UNL     1      -0.461  -0.462   0.000  1.00  0.00    -0.001 C 
ENDROOT
BRANCH   1   3
HETATM    3  C6  UNL     1       0.763   1.630   0.000  1.00  0.00    -0.000 C 
HETATM    4  C5  UNL     1       1.373   2.678   0.000  1.00  0.00    -0.001 C 
BRANCH   4   5
HETATM    5  C4  UNL     1       1.979   3.727   0.000  1.00  0.00    -0.008 C 
HETATM    6  C3  UNL     1       2.580   4.780   0.000  1.00  0.00    -0.050 C 
BRANCH   6   7
HETATM    7  C2  UNL     1       3.224   5.926   0.000  1.00  0.00     0.050 C 
HETATM    8  C1  UNL     1       2.562   7.092   0.000  1.00  0.00     0.009 C 
ENDBRANCH   6   7
ENDBRANCH   4   5
ENDBRANCH   1   3
BRANCH   2   9
HETATM    9  C9  UNL     1      -1.072  -1.509   0.000  1.00  0.00    -0.008 C 
HETATM   10  C10 UNL     1      -1.682  -2.556   0.000  1.00  0.00    -0.051 C 
BRANCH  10  11
HETATM   11  C11 UNL     1      -2.346  -3.691   0.000  1.00  0.00     0.045 C 
HETATM   12  C12 UNL     1      -1.710  -4.872   0.000  1.00  0.00    -0.017 C 
HETATM   13  C13 UNL     1      -2.416  -6.202  -0.000  1.00  0.00     0.031 C 
ENDBRANCH  10  11
ENDBRANCH   2   9
TORSDOF 5
