REMARK  5 active torsions:
REMARK  status: ('A' for Active; 'I' for Inactive)
REMARK    1  A    between atoms: C3_3  and  C4_4 
REMARK    2  A    between atoms: C5_5  and  C6_6 
REMARK    3  A    between atoms: C7_7  and  C8_8 
REMARK    4  A    between atoms: C9_9  and  C10_10 
REMARK    5  A    between atoms: C11_11  and  C12_12 
ROOT
HETATM    1  C6  UNL     1      -0.939  -0.312   0.507  1.00  0.00    -0.001 C 
HETATM    2  C7  UNL     1       0.273  -0.307   0.515  1.00  0.00    -0.001 C 
ENDROOT
BRANCH   2   3
HETATM    3  C8  UNL     1       1.485  -0.303   0.525  1.00  0.00    -0.008 C 
HETATM    4  C9  UNL     1       2.697  -0.301   0.531  1.00  0.00    -0.050 C 
BRANCH   4   5
HETATM    5  C10 UNL     1       4.012  -0.301   0.527  1.00  0.00     0.050 C 
HETATM    6  C11 UNL     1       4.694  -0.301  -0.630  1.00  0.00     0.009 C 
BRANCH   6   7
HETATM    7  C12 UNL     1       6.037  -0.302  -0.682  1.00  0.00     0.001 C 
HETATM    8  C13 UNL     1       6.720  -0.302  -1.838  1.00  0.00     0.000 C 
ENDBRANCH   6   7
ENDBRANCH   4   5
ENDBRANCH   2   3
BRANCH   1   9
HETATM    9  C5  UNL     1      -2.151  -0.317   0.502  1.00  0.00    -0.008 C 
HETATM   10  C4  UNL     1      -3.363  -0.318   0.501  1.00  0.00    -0.051 C 
BRANCH  10  11
HETATM   11  C3  UNL     1      -4.677  -0.315   0.502  1.00  0.00     0.045 C 
HETATM   12  C2  UNL     1      -5.371   0.834   0.503  1.00  0.00    -0.017 C 
HETATM   13  C1  UNL     1      -6.875   0.874   0.504  1.00  0.00     0.031 C 
ENDBRANCH  10  11
ENDBRANCH   1   9
TORSDOF 5
