REMARK  4 active torsions:
REMARK  status: ('A' for Active; 'I' for Inactive)
REMARK    1  A    between atoms: C5_5  and  C7_7 
REMARK    2  A    between atoms: C7_7  and  O1_8 
REMARK    3  A    between atoms: O1_8  and  C8_9 
REMARK    4  A    between atoms: C8_9  and  C9_10 
ROOT
HETATM    1  C7  UNL     1      -1.545   0.307   0.000  1.00  0.00     0.296 C 
HETATM    2  O2  UNL     1      -2.270   1.273   0.000  1.00  0.00    -0.259 OA
ENDROOT
BRANCH   1   3
HETATM    3  C5  UNL     1      -2.244  -1.014   0.000  1.00  0.00     0.063 A 
HETATM    4  C4  UNL     1      -1.498  -2.205   0.000  1.00  0.00     0.005 A 
HETATM    5  C3  UNL     1      -2.158  -3.447   0.000  1.00  0.00     0.000 A 
HETATM    6  C2  UNL     1      -3.563  -3.498   0.000  1.00  0.00     0.000 A 
HETATM    7  C1  UNL     1      -4.309  -2.309   0.000  1.00  0.00     0.000 A 
HETATM    8  C6  UNL     1      -3.651  -1.064   0.000  1.00  0.00     0.005 A 
ENDBRANCH   1   3
BRANCH   1   9
HETATM    9  O1  UNL     1      -0.217   0.377   0.000  1.00  0.00    -0.293 OA
BRANCH   9  10
HETATM   10  C8  UNL     1       0.254   1.717   0.000  1.00  0.00     0.179 C 
BRANCH  10  11
HETATM   11  C9  UNL     1       1.740   1.719   0.000  1.00  0.00     0.008 A 
HETATM   12  C10 UNL     1       2.445   1.131  -1.064  1.00  0.00    -0.002 A 
HETATM   13  C11 UNL     1       3.851   1.133  -1.064  1.00  0.00    -0.000 A 
HETATM   14  C12 UNL     1       4.553   1.725   0.000  1.00  0.00    -0.000 A 
HETATM   15  C13 UNL     1       3.848   2.313   1.064  1.00  0.00    -0.000 A 
HETATM   16  C14 UNL     1       2.443   2.311   1.064  1.00  0.00    -0.002 A 
ENDBRANCH  10  11
ENDBRANCH   9  10
ENDBRANCH   1   9
TORSDOF 4
