REMARK  3 active torsions:
REMARK  status: ('A' for Active; 'I' for Inactive)
REMARK    1  A    between atoms: C6_6  and  O1_7 
REMARK    2  A    between atoms: C9_12  and  O4_13 
REMARK    3  A    between atoms: C25_31  and  O6_42 
ROOT
HETATM    1  C1  UNL     1      -3.468   2.212   0.511  1.00  0.00     0.022 C 
HETATM    2  C2  UNL     1      -3.746   0.943   0.174  1.00  0.00    -0.015 C 
HETATM    3  C3  UNL     1      -2.771   0.103  -0.236  1.00  0.00     0.033 C 
HETATM    4  C4  UNL     1      -1.532   0.632  -0.424  1.00  0.00     0.128 C 
HETATM    5  C5  UNL     1      -1.275   1.910  -0.050  1.00  0.00     0.176 C 
HETATM    6  C6  UNL     1      -2.233   2.725   0.433  1.00  0.00     0.121 C 
HETATM    7  O2  UNL     1      -0.020   2.435  -0.153  1.00  0.00    -0.186 OA
HETATM    8  O3  UNL     1      -0.543  -0.131  -1.000  1.00  0.00    -0.303 OA
HETATM    9  C8  UNL     1       0.468   0.457  -1.715  1.00  0.00     0.122 A 
HETATM   10  C9  UNL     1       0.240   1.142  -2.853  1.00  0.00     0.116 A 
HETATM   11  C11 UNL     1       1.297   1.734  -3.436  1.00  0.00     0.022 A 
HETATM   12  C12 UNL     1       2.558   1.614  -2.984  1.00  0.00    -0.020 A 
HETATM   13  C13 UNL     1       2.813   0.894  -1.875  1.00  0.00     0.007 A 
HETATM   14  C14 UNL     1       1.740   0.323  -1.300  1.00  0.00     0.024 A 
HETATM   15  C15 UNL     1       4.238   0.816  -1.306  1.00  0.00     0.246 C 
HETATM   16  N1  UNL     1       5.202   0.906  -2.413  1.00  0.00     0.142 N 
HETATM   17  C16 UNL     1       5.037   2.184  -3.095  1.00  0.00     0.255 C 
HETATM   18  C17 UNL     1       3.663   2.284  -3.761  1.00  0.00     0.061 C 
HETATM   19  C18 UNL     1       6.594   0.748  -2.012  1.00  0.00     0.286 C 
HETATM   20  C19 UNL     1       4.551  -0.367  -0.349  1.00  0.00     0.064 C 
HETATM   21  C20 UNL     1       3.651  -0.569   0.856  1.00  0.00    -0.020 A 
HETATM   22  C21 UNL     1       3.106   0.459   1.532  1.00  0.00    -0.002 A 
HETATM   23  C22 UNL     1       2.155   0.244   2.455  1.00  0.00     0.024 A 
HETATM   24  C23 UNL     1       1.737  -0.998   2.764  1.00  0.00     0.100 A 
HETATM   25  O5  UNL     1       0.699  -1.203   3.632  1.00  0.00    -0.305 OA
HETATM   26  C24 UNL     1      -0.357  -1.933   3.132  1.00  0.00     0.122 A 
HETATM   27  C25 UNL     1      -1.078  -2.780   3.909  1.00  0.00     0.117 A 
HETATM   28  C26 UNL     1      -2.081  -3.452   3.308  1.00  0.00     0.026 A 
HETATM   29  C27 UNL     1      -2.386  -3.330   2.010  1.00  0.00    -0.002 A 
HETATM   30  C28 UNL     1      -1.697  -2.489   1.226  1.00  0.00    -0.014 A 
HETATM   31  C29 UNL     1      -2.036  -2.328  -0.255  1.00  0.00     0.070 C 
HETATM   32  C30 UNL     1      -3.080  -1.214  -0.406  1.00  0.00     0.039 C 
HETATM   33  N2  UNL     1      -4.323  -1.634  -0.510  1.00  0.00    -0.349 N 
HETATM   34  C31 UNL     1      -5.475  -0.655  -0.560  1.00  0.00     0.106 C 
HETATM   35  C32 UNL     1      -5.159   0.474   0.406  1.00  0.00     0.051 C 
HETATM   36  C33 UNL     1      -4.777  -3.061  -0.813  1.00  0.00     0.125 C 
HETATM   37  C34 UNL     1      -0.707  -1.813   1.832  1.00  0.00     0.023 A 
HETATM   38  C36 UNL     1       2.372  -2.022   2.165  1.00  0.00     0.024 A 
HETATM   39  C37 UNL     1       3.305  -1.814   1.226  1.00  0.00    -0.002 A 
ENDROOT
BRANCH   6  40
HETATM   40  O1  UNL     1      -1.886   4.006   0.794  1.00  0.00    -0.326 OA
HETATM   41  C7  UNL     1      -2.861   4.850   1.359  1.00  0.00     0.181 C 
ENDBRANCH   6  40
BRANCH  10  42
HETATM   42  O4  UNL     1      -1.036   1.346  -3.313  1.00  0.00    -0.326 OA
HETATM   43  C10 UNL     1      -1.403   0.492  -4.372  1.00  0.00     0.181 C 
ENDBRANCH  10  42
BRANCH  27  44
HETATM   44  O6  UNL     1      -0.914  -3.027   5.255  1.00  0.00    -0.326 OA
HETATM   45  C35 UNL     1       0.018  -2.313   6.029  1.00  0.00     0.181 C 
ENDBRANCH  27  44
TORSDOF 3
