REMARK  7 active torsions:
REMARK  status: ('A' for Active; 'I' for Inactive)
REMARK    1  A    between atoms: C2_2  and  O1_3 
REMARK    2  A    between atoms: O1_3  and  C3_4 
REMARK    3  A    between atoms: C3_4  and  C4_5 
REMARK    4  A    between atoms: C3_4  and  O3_7 
REMARK    5  A    between atoms: C3_4  and  O4_10 
REMARK    6  A    between atoms: O3_7  and  C5_8 
REMARK    7  A    between atoms: O4_10  and  C7_11 
ROOT
HETATM    1  C3  UNL     1      -0.265  -0.049  -0.458  1.00  0.00     0.329 C 
ENDROOT
BRANCH   1   2
HETATM    2  O1  UNL     1      -1.665   0.147  -0.299  1.00  0.00    -0.311 OA
BRANCH   2   3
HETATM    3  C2  UNL     1      -2.401  -1.013   0.005  1.00  0.00     0.147 C 
HETATM    4  C1  UNL     1      -3.806  -0.600   0.435  1.00  0.00     0.035 C 
ENDBRANCH   2   3
ENDBRANCH   1   2
BRANCH   1   5
HETATM    5  C4  UNL     1       0.023  -1.158  -1.446  1.00  0.00     0.270 C 
HETATM    6  O2  UNL     1       1.327  -1.004  -1.974  1.00  0.00    -0.212 OA
ENDBRANCH   1   5
BRANCH   1   7
HETATM    7  O3  UNL     1       0.273  -0.214   0.845  1.00  0.00    -0.311 OA
BRANCH   7   8
HETATM    8  C5  UNL     1       1.573  -0.737   0.924  1.00  0.00     0.147 C 
HETATM    9  C6  UNL     1       2.019  -0.702   2.384  1.00  0.00     0.035 C 
ENDBRANCH   7   8
ENDBRANCH   1   7
BRANCH   1  10
HETATM   10  O4  UNL     1       0.242   1.147  -1.032  1.00  0.00    -0.311 OA
BRANCH  10  11
HETATM   11  C7  UNL     1       0.023   2.334  -0.305  1.00  0.00     0.147 C 
HETATM   12  C8  UNL     1       1.357   2.920   0.154  1.00  0.00     0.035 C 
ENDBRANCH  10  11
ENDBRANCH   1  10
TORSDOF 7
