REMARK  10 active torsions:
REMARK  status: ('A' for Active; 'I' for Inactive)
REMARK    1  A    between atoms: C5_5  and  C7_7 
REMARK    2  A    between atoms: C7_7  and  O1_8 
REMARK    3  A    between atoms: O1_8  and  C8_9 
REMARK    4  A    between atoms: C10_11  and  C27_39 
REMARK    5  A    between atoms: C11_13  and  O8_27 
REMARK    6  A    between atoms: C12_14  and  O3_15 
REMARK    7  A    between atoms: O3_15  and  C13_16 
REMARK    8  A    between atoms: C13_16  and  C14_17 
REMARK    9  A    between atoms: O8_27  and  C20_28 
REMARK   10  A    between atoms: C20_28  and  C21_29 
ROOT
HETATM    1  C8  UNL     1      -0.939   0.162  -1.933  1.00  0.00     0.190 C 
HETATM    2  C9  UNL     1      -0.980   0.797  -3.322  1.00  0.00     0.212 C 
HETATM    3  C10 UNL     1      -0.201   2.099  -3.454  1.00  0.00     0.184 C 
HETATM    4  O2  UNL     1       1.065   1.994  -2.863  1.00  0.00    -0.326 OA
HETATM    5  C11 UNL     1       1.010   1.657  -1.494  1.00  0.00     0.274 C 
HETATM    6  C12 UNL     1       0.458   0.252  -1.311  1.00  0.00     0.211 C 
HETATM    7  O14 UNL     1      -0.451  -0.134  -4.241  1.00  0.00    -0.218 OA
ENDROOT
BRANCH   1   8
HETATM    8  O1  UNL     1      -1.873   0.764  -1.077  1.00  0.00    -0.295 OA
BRANCH   8   9
HETATM    9  C7  UNL     1      -3.122   0.196  -0.957  1.00  0.00     0.296 C 
HETATM   10  O15 UNL     1      -4.069   0.942  -1.113  1.00  0.00    -0.259 OA
BRANCH   9  11
HETATM   11  C5  UNL     1      -3.393  -1.091  -0.576  1.00  0.00     0.067 A 
HETATM   12  C4  UNL     1      -2.430  -1.949  -0.197  1.00  0.00     0.035 A 
HETATM   13  C3  UNL     1      -2.686  -3.222   0.143  1.00  0.00     0.158 A 
HETATM   14  C2  UNL     1      -3.956  -3.661   0.127  1.00  0.00     0.181 A 
HETATM   15  O16 UNL     1      -1.679  -4.069   0.487  1.00  0.00    -0.188 OA
HETATM   16  C1  UNL     1      -4.952  -2.821  -0.211  1.00  0.00     0.158 A 
HETATM   17  O17 UNL     1      -4.212  -4.955   0.465  1.00  0.00    -0.186 OA
HETATM   18  C6  UNL     1      -4.657  -1.555  -0.554  1.00  0.00     0.035 A 
HETATM   19  O18 UNL     1      -6.245  -3.247  -0.221  1.00  0.00    -0.188 OA
ENDBRANCH   9  11
ENDBRANCH   8   9
ENDBRANCH   1   8
BRANCH   6  20
HETATM   20  O3  UNL     1       1.225  -0.795  -1.848  1.00  0.00    -0.293 OA
BRANCH  20  21
HETATM   21  C13 UNL     1       2.458  -1.048  -1.302  1.00  0.00     0.296 C 
HETATM   22  O7  UNL     1       3.434  -0.546  -1.824  1.00  0.00    -0.259 OA
BRANCH  21  23
HETATM   23  C14 UNL     1       2.644  -1.907  -0.255  1.00  0.00     0.067 A 
HETATM   24  C15 UNL     1       3.872  -2.156   0.236  1.00  0.00     0.035 A 
HETATM   25  C16 UNL     1       4.059  -2.980   1.281  1.00  0.00     0.158 A 
HETATM   26  C17 UNL     1       2.996  -3.566   1.858  1.00  0.00     0.181 A 
HETATM   27  O6  UNL     1       5.302  -3.222   1.780  1.00  0.00    -0.188 OA
HETATM   28  C18 UNL     1       1.759  -3.343   1.384  1.00  0.00     0.158 A 
HETATM   29  O5  UNL     1       3.164  -4.387   2.928  1.00  0.00    -0.186 OA
HETATM   30  C19 UNL     1       1.602  -2.514   0.339  1.00  0.00     0.035 A 
HETATM   31  O4  UNL     1       0.689  -3.916   1.996  1.00  0.00    -0.188 OA
ENDBRANCH  21  23
ENDBRANCH  20  21
ENDBRANCH   6  20
BRANCH   3  32
HETATM   32  C27 UNL     1      -0.964   3.336  -2.990  1.00  0.00     0.214 C 
HETATM   33  O13 UNL     1      -2.061   3.556  -3.855  1.00  0.00    -0.218 OA
ENDBRANCH   3  32
BRANCH   5  34
HETATM   34  O8  UNL     1       2.344   1.783  -1.057  1.00  0.00    -0.270 OA
BRANCH  34  35
HETATM   35  C20 UNL     1       2.783   2.685  -0.115  1.00  0.00     0.298 C 
HETATM   36  O12 UNL     1       3.938   3.043  -0.256  1.00  0.00    -0.259 OA
BRANCH  35  37
HETATM   37  C21 UNL     1       2.142   3.191   0.987  1.00  0.00     0.068 A 
HETATM   38  C22 UNL     1       2.742   4.145   1.728  1.00  0.00     0.035 A 
HETATM   39  C23 UNL     1       2.172   4.689   2.816  1.00  0.00     0.158 A 
HETATM   40  C24 UNL     1       0.958   4.265   3.199  1.00  0.00     0.181 A 
HETATM   41  O11 UNL     1       2.796   5.659   3.539  1.00  0.00    -0.188 OA
HETATM   42  C25 UNL     1       0.338   3.298   2.504  1.00  0.00     0.158 A 
HETATM   43  O10 UNL     1       0.358   4.800   4.296  1.00  0.00    -0.186 OA
HETATM   44  C26 UNL     1       0.939   2.775   1.422  1.00  0.00     0.035 A 
HETATM   45  O9  UNL     1      -0.881   2.855   2.912  1.00  0.00    -0.188 OA
ENDBRANCH  35  37
ENDBRANCH  34  35
ENDBRANCH   5  34
TORSDOF 10
