REMARK  3 active torsions:
REMARK  status: ('A' for Active; 'I' for Inactive)
REMARK    1  A    between atoms: C5_5  and  C7_7 
REMARK    2  A    between atoms: C7_7  and  C8_8 
REMARK    3  A    between atoms: C13_13  and  C14_14 
ROOT
HETATM    1  C8  UNL     1       0.924   1.100   0.175  1.00  0.00    -0.012 A 
HETATM    2  C9  UNL     1       2.260   1.178   0.607  1.00  0.00    -0.004 A 
HETATM    3  C10 UNL     1       3.309   1.162  -0.329  1.00  0.00    -0.000 A 
HETATM    4  C11 UNL     1       3.024   1.066  -1.700  1.00  0.00     0.000 A 
HETATM    5  C12 UNL     1       1.690   0.986  -2.137  1.00  0.00     0.006 A 
HETATM    6  C13 UNL     1       0.639   1.002  -1.204  1.00  0.00     0.061 A 
ENDROOT
BRANCH   1   7
HETATM    7  C7  UNL     1      -0.170   1.117   1.183  1.00  0.00     0.053 C 
BRANCH   7   8
HETATM    8  C5  UNL     1      -0.867  -0.195   1.183  1.00  0.00    -0.018 A 
HETATM    9  C4  UNL     1      -0.121  -1.389   1.183  1.00  0.00    -0.004 A 
HETATM   10  C3  UNL     1      -0.779  -2.629   1.183  1.00  0.00    -0.000 A 
HETATM   11  C2  UNL     1      -2.183  -2.682   1.183  1.00  0.00    -0.000 A 
HETATM   12  C1  UNL     1      -2.930  -1.490   1.183  1.00  0.00    -0.000 A 
HETATM   13  C6  UNL     1      -2.271  -0.248   1.183  1.00  0.00    -0.004 A 
ENDBRANCH   7   8
ENDBRANCH   1   7
BRANCH   6  14
HETATM   14  C14 UNL     1      -0.775   0.916  -1.686  1.00  0.00     0.210 C 
HETATM   15  O1  UNL     1      -1.678   1.422  -1.059  1.00  0.00    -0.644 OA
HETATM   16  O2  UNL     1      -0.943   0.258  -2.829  1.00  0.00    -0.644 OA
ENDBRANCH   6  14
TORSDOF 3
