REMARK  5 active torsions:
REMARK  status: ('A' for Active; 'I' for Inactive)
REMARK    1  A    between atoms: C2_2  and  O5_35 
REMARK    2  A    between atoms: C15_16  and  C18_19 
REMARK    3  A    between atoms: C20_21  and  C22_25 
REMARK    4  A    between atoms: C22_25  and  C23_26 
REMARK    5  A    between atoms: O5_35  and  C31_36 
ROOT
HETATM    1  C1  UNL     1      -4.294  -0.302  -2.166  1.00  0.00     0.030 C 
HETATM    2  C2  UNL     1      -4.460  -1.531  -3.062  1.00  0.00     0.124 C 
HETATM    3  C3  UNL     1      -3.242  -2.479  -2.923  1.00  0.00     0.026 C 
HETATM    4  C4  UNL     1      -2.921  -2.801  -1.421  1.00  0.00     0.008 C 
HETATM    5  C5  UNL     1      -3.029  -1.659  -0.367  1.00  0.00     0.015 C 
HETATM    6  C6  UNL     1      -4.249  -0.758  -0.709  1.00  0.00     0.006 C 
HETATM    7  C7  UNL     1      -1.684  -0.921  -0.188  1.00  0.00    -0.047 C 
HETATM    8  C8  UNL     1      -0.366  -1.711  -0.042  1.00  0.00     0.043 C 
HETATM    9  C9  UNL     1      -0.334  -2.985  -0.914  1.00  0.00     0.155 C 
HETATM   10  C10 UNL     1      -1.680  -3.683  -1.144  1.00  0.00     0.034 C 
HETATM   11  O1  UNL     1       0.292  -2.782  -2.151  1.00  0.00    -0.223 OA
HETATM   12  C11 UNL     1       0.826  -0.716  -0.329  1.00  0.00     0.006 C 
HETATM   13  C12 UNL     1       0.769   0.413   0.724  1.00  0.00     0.005 C 
HETATM   14  C13 UNL     1      -0.483   1.252   0.473  1.00  0.00     0.025 C 
HETATM   15  C14 UNL     1      -1.671   0.403   0.082  1.00  0.00    -0.035 C 
HETATM   16  C15 UNL     1       2.139   1.119   0.705  1.00  0.00     0.005 C 
HETATM   17  C16 UNL     1       3.103   0.050   0.141  1.00  0.00     0.000 C 
HETATM   18  C17 UNL     1       2.267  -1.221  -0.103  1.00  0.00     0.000 C 
HETATM   19  C26 UNL     1       0.797  -0.060  -1.741  1.00  0.00     0.000 C 
HETATM   20  C27 UNL     1      -0.319  -2.227   1.431  1.00  0.00     0.007 C 
HETATM   21  C28 UNL     1      -3.445  -2.236   1.019  1.00  0.00     0.004 C 
HETATM   22  C29 UNL     1      -3.558  -3.785  -3.706  1.00  0.00     0.002 C 
HETATM   23  C30 UNL     1      -2.078  -1.822  -3.693  1.00  0.00     0.002 C 
ENDROOT
BRANCH  16  24
HETATM   24  C18 UNL     1       2.594   1.645   2.077  1.00  0.00     0.062 C 
HETATM   25  C19 UNL     1       3.916   2.434   2.030  1.00  0.00     0.035 C 
HETATM   26  C20 UNL     1       3.579   3.774   2.686  1.00  0.00     0.121 C 
HETATM   27  O2  UNL     1       2.440   3.522   3.459  1.00  0.00    -0.331 OA
HETATM   28  C21 UNL     1       1.647   2.653   2.697  1.00  0.00     0.269 C 
HETATM   29  O3  UNL     1       0.837   2.082   3.706  1.00  0.00    -0.190 OA
BRANCH  26  30
HETATM   30  C22 UNL     1       4.662   4.395   3.570  1.00  0.00     0.060 C 
BRANCH  30  31
HETATM   31  C23 UNL     1       5.799   5.140   2.854  1.00  0.00     0.129 C 
HETATM   32  C24 UNL     1       6.721   5.796   3.888  1.00  0.00     0.033 C 
HETATM   33  C25 UNL     1       6.623   4.244   1.929  1.00  0.00     0.033 C 
HETATM   34  O4  UNL     1       5.240   6.167   2.077  1.00  0.00    -0.226 OA
ENDBRANCH  30  31
ENDBRANCH  26  30
ENDBRANCH  16  24
BRANCH   2  35
HETATM   35  O5  UNL     1      -5.654  -2.177  -2.708  1.00  0.00    -0.304 OA
BRANCH  35  36
HETATM   36  C31 UNL     1      -6.540  -2.541  -3.672  1.00  0.00     0.272 C 
HETATM   37  C32 UNL     1      -7.753  -3.190  -3.035  1.00  0.00     0.106 C 
HETATM   38  O6  UNL     1      -6.399  -2.376  -4.862  1.00  0.00    -0.264 OA
ENDBRANCH  35  36
ENDBRANCH   2  35
TORSDOF 5
