REMARK  4 active torsions:
REMARK  status: ('A' for Active; 'I' for Inactive)
REMARK    1  A    between atoms: C1_2  and  O2_3 
REMARK    2  A    between atoms: O2_3  and  C2_4 
REMARK    3  A    between atoms: C13_15  and  O3_16 
REMARK    4  A    between atoms: O3_16  and  C14_17 
ROOT
HETATM    1  C2  UNL     1      -1.425  -2.182  -1.087  1.00  0.00     0.142 C 
HETATM    2  C3  UNL     1      -1.401  -0.654  -1.165  1.00  0.00    -0.022 C 
HETATM    3  C4  UNL     1      -2.787  -0.067  -0.966  1.00  0.00     0.028 C 
HETATM    4  C5  UNL     1      -0.267   0.051  -1.404  1.00  0.00    -0.021 C 
HETATM    5  C6  UNL     1       0.976  -0.723  -1.812  1.00  0.00     0.019 C 
HETATM    6  C7  UNL     1       1.062  -1.795  -0.715  1.00  0.00     0.037 C 
HETATM    7  C8  UNL     1      -0.038  -2.841  -1.009  1.00  0.00     0.037 C 
HETATM    8  C9  UNL     1       0.930  -1.348   0.769  1.00  0.00     0.156 C 
HETATM    9  C10 UNL     1       1.435  -0.009   1.375  1.00  0.00     0.054 C 
HETATM   10  C11 UNL     1       0.731   1.393   1.196  1.00  0.00     0.037 C 
HETATM   11  C12 UNL     1       0.692   2.082  -0.206  1.00  0.00     0.184 C 
HETATM   12  C13 UNL     1      -0.140   1.558  -1.388  1.00  0.00     0.172 C 
HETATM   13  O5  UNL     1       1.988   2.434  -0.645  1.00  0.00    -0.221 OA
HETATM   14  C16 UNL     1       1.504   2.449   2.079  1.00  0.00     0.006 C 
HETATM   15  C17 UNL     1       1.837   2.097   3.536  1.00  0.00     0.037 C 
HETATM   16  C18 UNL     1       2.489   0.725   3.612  1.00  0.00     0.171 C 
HETATM   17  C19 UNL     1       1.519  -0.184   2.904  1.00  0.00    -0.012 C 
HETATM   18  C20 UNL     1       0.663  -0.896   3.660  1.00  0.00    -0.007 C 
HETATM   19  O6  UNL     1       3.757   0.719   2.983  1.00  0.00    -0.219 OA
HETATM   20  C21 UNL     1      -0.717   1.327   1.737  1.00  0.00     0.003 C 
HETATM   21  O7  UNL     1       1.604  -2.388   1.463  1.00  0.00    -0.223 OA
HETATM   22  C22 UNL     1       0.729  -1.231  -3.259  1.00  0.00     0.004 C 
HETATM   23  C23 UNL     1       2.364  -0.056  -1.943  1.00  0.00     0.004 C 
ENDROOT
BRANCH   1  24
HETATM   24  O2  UNL     1      -2.175  -2.700  -2.162  1.00  0.00    -0.300 OA
BRANCH  24  25
HETATM   25  C1  UNL     1      -2.887  -3.860  -2.100  1.00  0.00     0.273 C 
HETATM   26  O1  UNL     1      -3.439  -4.327  -3.075  1.00  0.00    -0.264 OA
HETATM   27  C24 UNL     1      -3.018  -4.519  -0.739  1.00  0.00     0.106 C 
ENDBRANCH  24  25
ENDBRANCH   1  24
BRANCH  12  28
HETATM   28  O3  UNL     1      -1.394   2.196  -1.438  1.00  0.00    -0.297 OA
BRANCH  28  29
HETATM   29  C14 UNL     1      -1.481   3.487  -1.854  1.00  0.00     0.273 C 
HETATM   30  C15 UNL     1      -2.909   3.973  -1.712  1.00  0.00     0.106 C 
HETATM   31  O4  UNL     1      -0.558   4.159  -2.255  1.00  0.00    -0.264 OA
ENDBRANCH  28  29
ENDBRANCH  12  28
TORSDOF 4
