REMARK  2 active torsions:
REMARK  status: ('A' for Active; 'I' for Inactive)
REMARK    1  A    between atoms: C5_5  and  C7_7 
REMARK    2  A    between atoms: C7_7  and  C8_8 
ROOT
HETATM    1  C1  UNL     1      -2.154  -1.246  -0.398  1.00  0.00    -0.000 A 
HETATM    2  C2  UNL     1      -1.408  -2.437  -0.398  1.00  0.00    -0.000 A 
HETATM    3  C3  UNL     1      -0.004  -2.387  -0.398  1.00  0.00    -0.000 A 
HETATM    4  C4  UNL     1       0.655  -1.144  -0.398  1.00  0.00    -0.004 A 
HETATM    5  C5  UNL     1      -0.092   0.049  -0.398  1.00  0.00    -0.019 A 
HETATM    6  C6  UNL     1      -1.496  -0.004  -0.398  1.00  0.00    -0.004 A 
ENDROOT
BRANCH   5   7
HETATM    7  C7  UNL     1       0.606   1.361  -0.398  1.00  0.00     0.062 C 
BRANCH   7   8
HETATM    8  C8  UNL     1       1.186   1.692   0.979  1.00  0.00     0.187 C 
HETATM    9  O1  UNL     1       1.819   2.949   0.901  1.00  0.00    -0.220 OA
ENDBRANCH   7   8
ENDBRANCH   5   7
TORSDOF 2
