REMARK  2 active torsions:
REMARK  status: ('A' for Active; 'I' for Inactive)
REMARK    1  A    between atoms: C3_3  and  O5_20 
REMARK    2  A    between atoms: C7_8  and  C10_12 
ROOT
HETATM    1  C1  UNL     1      -2.854  -1.496   1.684  1.00  0.00     0.135 A 
HETATM    2  C2  UNL     1      -2.464  -2.630   1.085  1.00  0.00     0.052 A 
HETATM    3  C3  UNL     1      -1.374  -2.720   0.296  1.00  0.00     0.101 A 
HETATM    4  C4  UNL     1      -0.643  -1.588   0.125  1.00  0.00     0.079 A 
HETATM    5  C5  UNL     1      -0.984  -0.427   0.730  1.00  0.00     0.101 A 
HETATM    6  C6  UNL     1      -2.097  -0.411   1.484  1.00  0.00     0.052 A 
HETATM    7  O1  UNL     1      -0.307   0.757   0.586  1.00  0.00    -0.328 OA
HETATM    8  C7  UNL     1       0.420   0.900  -0.602  1.00  0.00     0.155 C 
HETATM    9  C8  UNL     1       1.289  -0.331  -0.801  1.00  0.00     0.104 C 
HETATM   10  C9  UNL     1       0.479  -1.609  -0.653  1.00  0.00     0.180 C 
HETATM   11  O2  UNL     1       0.903  -2.577  -1.246  1.00  0.00    -0.291 OA
HETATM   12  O6  UNL     1      -3.971  -1.456   2.460  1.00  0.00    -0.190 OA
ENDROOT
BRANCH   8  13
HETATM   13  C10 UNL     1       1.237   2.191  -0.598  1.00  0.00     0.056 A 
HETATM   14  C11 UNL     1       1.165   3.033  -1.653  1.00  0.00     0.131 A 
HETATM   15  O3  UNL     1       0.383   2.769  -2.735  1.00  0.00    -0.190 OA
HETATM   16  C12 UNL     1       1.889   4.164  -1.638  1.00  0.00     0.027 A 
HETATM   17  C13 UNL     1       2.679   4.470  -0.601  1.00  0.00     0.004 A 
HETATM   18  C14 UNL     1       2.745   3.625   0.435  1.00  0.00     0.027 A 
HETATM   19  C15 UNL     1       2.033   2.486   0.454  1.00  0.00     0.131 A 
HETATM   20  O4  UNL     1       2.147   1.665   1.535  1.00  0.00    -0.190 OA
ENDBRANCH   8  13
BRANCH   3  21
HETATM   21  O5  UNL     1      -0.989  -3.901  -0.299  1.00  0.00    -0.328 OA
HETATM   22  C16 UNL     1      -1.683  -5.094  -0.009  1.00  0.00     0.181 C 
ENDBRANCH   3  21
TORSDOF 2
