REMARK  4 active torsions:
REMARK  status: ('A' for Active; 'I' for Inactive)
REMARK    1  A    between atoms: C6_6  and  O1_7 
REMARK    2  A    between atoms: C8_10  and  C11_14 
REMARK    3  A    between atoms: C11_14  and  C12_15 
REMARK    4  A    between atoms: C12_15  and  C13_16 
ROOT
HETATM    1  C1  UNL     1      -3.908  -0.700   0.205  1.00  0.00     0.218 C 
HETATM    2  C2  UNL     1      -3.923  -2.033  -0.510  1.00  0.00     0.220 C 
HETATM    3  C3  UNL     1      -2.787  -2.918  -0.041  1.00  0.00     0.212 C 
HETATM    4  C4  UNL     1      -1.462  -2.199   0.056  1.00  0.00     0.070 A 
HETATM    5  C5  UNL     1      -1.380  -0.856   0.086  1.00  0.00     0.108 A 
HETATM    6  C6  UNL     1      -2.601   0.038  -0.049  1.00  0.00     0.193 C 
HETATM    7  O2  UNL     1      -0.206  -0.170   0.203  1.00  0.00    -0.313 OA
HETATM    8  C8  UNL     1       0.913  -0.940   0.277  1.00  0.00     0.081 A 
HETATM    9  C9  UNL     1       0.859  -2.281   0.257  1.00  0.00     0.062 A 
HETATM   10  C10 UNL     1      -0.324  -2.934   0.150  1.00  0.00     0.198 A 
HETATM   11  O3  UNL     1      -0.372  -4.144   0.137  1.00  0.00    -0.287 OA
HETATM   12  O4  UNL     1      -2.713  -4.028  -0.915  1.00  0.00    -0.216 OA
HETATM   13  O5  UNL     1      -5.134  -2.686  -0.221  1.00  0.00    -0.217 OA
HETATM   14  O6  UNL     1      -4.062  -0.951   1.582  1.00  0.00    -0.217 OA
ENDROOT
BRANCH   8  15
HETATM   15  C11 UNL     1       2.241  -0.226   0.441  1.00  0.00     0.056 C 
BRANCH  15  16
HETATM   16  C12 UNL     1       2.223   1.224  -0.074  1.00  0.00     0.033 C 
BRANCH  16  17
HETATM   17  C13 UNL     1       3.488   2.042   0.115  1.00  0.00    -0.022 A 
HETATM   18  C14 UNL     1       3.444   3.369  -0.113  1.00  0.00    -0.004 A 
HETATM   19  C15 UNL     1       4.528   4.144   0.043  1.00  0.00    -0.000 A 
HETATM   20  C16 UNL     1       5.689   3.600   0.433  1.00  0.00    -0.000 A 
HETATM   21  C17 UNL     1       5.753   2.280   0.665  1.00  0.00    -0.000 A 
HETATM   22  C18 UNL     1       4.662   1.513   0.507  1.00  0.00    -0.004 A 
ENDBRANCH  16  17
ENDBRANCH  15  16
ENDBRANCH   8  15
BRANCH   6  23
HETATM   23  O1  UNL     1      -2.603   0.586  -1.352  1.00  0.00    -0.345 OA
HETATM   24  C7  UNL     1      -3.037   1.928  -1.393  1.00  0.00     0.175 C 
ENDBRANCH   6  23
TORSDOF 4
