REMARK  5 active torsions:
REMARK  status: ('A' for Active; 'I' for Inactive)
REMARK    1  A    between atoms: C12_14  and  O4_19 
REMARK    2  A    between atoms: O4_19  and  C16_20 
REMARK    3  A    between atoms: C17_22  and  C21_29 
REMARK    4  A    between atoms: C21_29  and  O9_30 
REMARK    5  A    between atoms: O9_30  and  C22_31 
ROOT
HETATM    1  C1  UNL     1       1.839  -4.095  -0.610  1.00  0.00     0.044 A 
HETATM    2  C2  UNL     1       2.615  -4.112  -1.707  1.00  0.00     0.042 A 
HETATM    3  C3  UNL     1       3.347  -5.214  -1.960  1.00  0.00     0.005 A 
HETATM    4  C4  UNL     1       3.306  -6.275  -1.139  1.00  0.00     0.028 A 
HETATM    5  C5  UNL     1       2.535  -6.273  -0.042  1.00  0.00     0.131 A 
HETATM    6  C6  UNL     1       1.810  -5.169   0.204  1.00  0.00     0.031 A 
HETATM    7  O1  UNL     1       2.495  -7.352   0.785  1.00  0.00    -0.190 OA
HETATM    8  C7  UNL     1       2.663  -3.045  -2.551  1.00  0.00     0.198 A 
HETATM    9  C8  UNL     1       1.905  -1.943  -2.275  1.00  0.00     0.067 A 
HETATM   10  C9  UNL     1       1.130  -1.942  -1.174  1.00  0.00     0.046 A 
HETATM   11  C10 UNL     1       1.083  -3.004  -0.322  1.00  0.00     0.196 A 
HETATM   12  O2  UNL     1       0.380  -2.985   0.667  1.00  0.00    -0.287 OA
HETATM   13  C11 UNL     1       0.374  -0.866  -0.893  1.00  0.00     0.027 A 
HETATM   14  C12 UNL     1       0.322   0.220  -1.682  1.00  0.00     0.095 A 
HETATM   15  C13 UNL     1       1.121   0.204  -2.770  1.00  0.00     0.026 A 
HETATM   16  C14 UNL     1       1.905  -0.853  -3.082  1.00  0.00     0.132 A 
HETATM   17  O3  UNL     1       2.692  -0.741  -4.193  1.00  0.00    -0.190 OA
HETATM   18  C15 UNL     1       1.109   1.435  -3.663  1.00  0.00     0.035 C 
HETATM   19  O11 UNL     1       3.372  -3.117  -3.529  1.00  0.00    -0.286 OA
ENDROOT
BRANCH  14  20
HETATM   20  O4  UNL     1      -0.435   1.340  -1.427  1.00  0.00    -0.304 OA
BRANCH  20  21
HETATM   21  C16 UNL     1      -1.066   1.520  -0.177  1.00  0.00     0.274 C 
HETATM   22  O5  UNL     1      -1.231   2.925  -0.156  1.00  0.00    -0.326 OA
HETATM   23  C17 UNL     1      -1.863   3.405   1.002  1.00  0.00     0.181 C 
HETATM   24  C18 UNL     1      -3.248   2.786   1.128  1.00  0.00     0.215 C 
HETATM   25  C19 UNL     1      -3.213   1.273   1.051  1.00  0.00     0.220 C 
HETATM   26  O8  UNL     1      -3.865   3.151   2.337  1.00  0.00    -0.218 OA
HETATM   27  C20 UNL     1      -2.407   0.823  -0.147  1.00  0.00     0.241 C 
HETATM   28  O7  UNL     1      -4.531   0.801   0.909  1.00  0.00    -0.218 OA
HETATM   29  O6  UNL     1      -3.129   1.150  -1.311  1.00  0.00    -0.215 OA
BRANCH  23  30
HETATM   30  C21 UNL     1      -0.957   3.276   2.225  1.00  0.00     0.184 C 
BRANCH  30  31
HETATM   31  O9  UNL     1      -1.304   4.248   3.179  1.00  0.00    -0.299 OA
BRANCH  31  32
HETATM   32  C22 UNL     1      -0.516   4.320   4.285  1.00  0.00     0.273 C 
HETATM   33  C23 UNL     1      -0.977   5.448   5.186  1.00  0.00     0.106 C 
HETATM   34  O10 UNL     1       0.428   3.598   4.511  1.00  0.00    -0.264 OA
ENDBRANCH  31  32
ENDBRANCH  30  31
ENDBRANCH  23  30
ENDBRANCH  20  21
ENDBRANCH  14  20
TORSDOF 5
