REMARK  3 active torsions:
REMARK  status: ('A' for Active; 'I' for Inactive)
REMARK    1  A    between atoms: C4_4  and  O3_9 
REMARK    2  A    between atoms: C5_6  and  C6_7 
REMARK    3  A    between atoms: O3_9  and  C7_10 
ROOT
HETATM    1  C7  UNL     1       1.697  -0.360   0.356  1.00  0.00     0.099 A 
HETATM    2  C8  UNL     1       1.996   0.734  -0.381  1.00  0.00     0.025 A 
HETATM    3  C9  UNL     1       1.817   0.739  -1.717  1.00  0.00     0.002 A 
HETATM    4  C10 UNL     1       2.066   1.829  -2.457  1.00  0.00     0.000 A 
HETATM    5  C11 UNL     1       2.515   2.941  -1.864  1.00  0.00     0.000 A 
HETATM    6  C12 UNL     1       2.721   2.942  -0.539  1.00  0.00     0.002 A 
HETATM    7  C13 UNL     1       2.470   1.852   0.212  1.00  0.00     0.029 A 
HETATM    8  C14 UNL     1       2.701   1.888   1.540  1.00  0.00     0.156 A 
HETATM    9  C15 UNL     1       2.481   0.781   2.272  1.00  0.00     0.158 A 
HETATM   10  C16 UNL     1       1.986  -0.308   1.668  1.00  0.00     0.054 A 
HETATM   11  O4  UNL     1       2.725   0.786   3.611  1.00  0.00    -0.188 OA
HETATM   12  O5  UNL     1       3.205   2.990   2.163  1.00  0.00    -0.188 OA
ENDROOT
BRANCH   1  13
HETATM   13  O3  UNL     1       1.227  -1.537  -0.175  1.00  0.00    -0.304 OA
BRANCH  13  14
HETATM   14  C4  UNL     1      -0.122  -1.576  -0.595  1.00  0.00     0.274 C 
HETATM   15  C3  UNL     1      -0.840  -2.714   0.093  1.00  0.00     0.241 C 
HETATM   16  C2  UNL     1      -2.269  -2.745  -0.407  1.00  0.00     0.220 C 
HETATM   17  O6  UNL     1      -0.212  -3.930  -0.222  1.00  0.00    -0.215 OA
HETATM   18  C1  UNL     1      -2.906  -1.393  -0.153  1.00  0.00     0.215 C 
HETATM   19  O7  UNL     1      -2.990  -3.741   0.271  1.00  0.00    -0.218 OA
HETATM   20  C5  UNL     1      -2.061  -0.277  -0.759  1.00  0.00     0.184 C 
HETATM   21  O8  UNL     1      -4.193  -1.408  -0.720  1.00  0.00    -0.218 OA
HETATM   22  O1  UNL     1      -0.751  -0.359  -0.266  1.00  0.00    -0.326 OA
BRANCH  20  23
HETATM   23  C6  UNL     1      -2.607   1.103  -0.420  1.00  0.00     0.214 C 
HETATM   24  O2  UNL     1      -1.810   2.096  -1.038  1.00  0.00    -0.218 OA
ENDBRANCH  20  23
ENDBRANCH  13  14
ENDBRANCH   1  13
TORSDOF 3
