REMARK  3 active torsions:
REMARK  status: ('A' for Active; 'I' for Inactive)
REMARK    1  A    between atoms: C6_6  and  C7_7 
REMARK    2  A    between atoms: C7_7  and  N1_8 
REMARK    3  A    between atoms: C8_9  and  C9_10 
ROOT
HETATM    1  C1  UNL     1      -1.598  -0.412   0.633  1.00  0.00    -0.002 A 
HETATM    2  C2  UNL     1      -2.256  -1.654   0.633  1.00  0.00    -0.000 A 
HETATM    3  C3  UNL     1      -1.508  -2.846   0.633  1.00  0.00    -0.000 A 
HETATM    4  C4  UNL     1      -0.104  -2.795   0.633  1.00  0.00    -0.000 A 
HETATM    5  C5  UNL     1       0.555  -1.553   0.633  1.00  0.00    -0.002 A 
HETATM    6  C6  UNL     1      -0.192  -0.359   0.633  1.00  0.00     0.002 A 
ENDROOT
BRANCH   6   7
HETATM    7  C7  UNL     1       0.504   0.953   0.633  1.00  0.00     0.152 C 
BRANCH   7   8
HETATM    8  N1  UNL     1       0.760   1.432  -0.734  1.00  0.00    -0.264 NA
HETATM    9  C8  UNL     1       1.353   2.553  -0.908  1.00  0.00     0.105 C 
BRANCH   9  10
HETATM   10  C9  UNL     1       1.615   3.041  -2.265  1.00  0.00     0.085 C 
HETATM   11  S1  UNL     1       1.164   2.189  -3.642  1.00  0.00    -0.076 SA
ENDBRANCH   9  10
ENDBRANCH   7   8
ENDBRANCH   6   7
TORSDOF 3
