REMARK  4 active torsions:
REMARK  status: ('A' for Active; 'I' for Inactive)
REMARK    1  A    between atoms: C2_3  and  O2_4 
REMARK    2  A    between atoms: C10_13  and  C11_15 
REMARK    3  A    between atoms: C14_18  and  O6_23 
REMARK    4  A    between atoms: C15_19  and  O5_21 
ROOT
HETATM    1  O1  UNL     1      -4.290   4.658  -0.196  1.00  0.00    -0.186 OA
HETATM    2  C1  UNL     1      -3.423   3.607  -0.224  1.00  0.00     0.178 A 
HETATM    3  C2  UNL     1      -3.921   2.361  -0.339  1.00  0.00     0.123 A 
HETATM    4  C4  UNL     1      -3.029   1.356  -0.360  1.00  0.00     0.051 A 
HETATM    5  C5  UNL     1      -1.700   1.542  -0.270  1.00  0.00     0.107 A 
HETATM    6  C6  UNL     1      -1.238   2.797  -0.159  1.00  0.00     0.091 A 
HETATM    7  C7  UNL     1      -2.099   3.837  -0.137  1.00  0.00     0.163 A 
HETATM    8  O3  UNL     1      -1.697   5.136  -0.020  1.00  0.00    -0.188 OA
HETATM    9  C8  UNL     1       0.109   2.976  -0.070  1.00  0.00     0.227 A 
HETATM   10  C9  UNL     1       0.947   1.897  -0.046  1.00  0.00     0.192 A 
HETATM   11  C10 UNL     1       0.462   0.635  -0.115  1.00  0.00     0.128 A 
HETATM   12  O4  UNL     1      -0.881   0.457  -0.312  1.00  0.00    -0.305 OA
HETATM   13  O7  UNL     1       2.271   2.221  -0.016  1.00  0.00    -0.185 OA
HETATM   14  O8  UNL     1       0.601   4.082  -0.002  1.00  0.00    -0.284 OA
ENDROOT
BRANCH  11  15
HETATM   15  C11 UNL     1       1.216  -0.497  -0.035  1.00  0.00     0.027 A 
HETATM   16  C12 UNL     1       0.626  -1.688  -0.261  1.00  0.00     0.004 A 
HETATM   17  C13 UNL     1       1.294  -2.847  -0.189  1.00  0.00     0.026 A 
HETATM   18  C14 UNL     1       2.604  -2.930   0.115  1.00  0.00     0.116 A 
HETATM   19  C15 UNL     1       3.235  -1.757   0.368  1.00  0.00     0.116 A 
HETATM   20  C16 UNL     1       2.516  -0.615   0.296  1.00  0.00     0.028 A 
BRANCH  18  21
HETATM   21  O6  UNL     1       3.270  -4.128   0.200  1.00  0.00    -0.326 OA
HETATM   22  C18 UNL     1       2.557  -5.339   0.104  1.00  0.00     0.181 C 
ENDBRANCH  18  21
BRANCH  19  23
HETATM   23  O5  UNL     1       4.556  -1.598   0.737  1.00  0.00    -0.326 OA
HETATM   24  C17 UNL     1       5.384  -2.694   1.036  1.00  0.00     0.181 C 
ENDBRANCH  19  23
ENDBRANCH  11  15
BRANCH   3  25
HETATM   25  O2  UNL     1      -5.284   2.213  -0.427  1.00  0.00    -0.326 OA
HETATM   26  C3  UNL     1      -5.829   0.919  -0.537  1.00  0.00     0.181 C 
ENDBRANCH   3  25
TORSDOF 4
