REMARK  9 active torsions:
REMARK  status: ('A' for Active; 'I' for Inactive)
REMARK    1  A    between atoms: C3_3  and  C4_4 
REMARK    2  A    between atoms: C4_4  and  O2_6 
REMARK    3  A    between atoms: O2_6  and  C5_7 
REMARK    4  A    between atoms: C15_18  and  O6_26 
REMARK    5  A    between atoms: C17_20  and  O4_22 
REMARK    6  A    between atoms: O4_22  and  C19_23 
REMARK    7  A    between atoms: O6_26  and  C21_27 
REMARK    8  A    between atoms: C21_27  and  C22_29 
REMARK    9  A    between atoms: C22_29  and  C24_31 
ROOT
HETATM    1  C5  UNL     1      -2.216  -1.412   0.198  1.00  0.00     0.143 C 
HETATM    2  C6  UNL     1      -1.747  -0.044   0.702  1.00  0.00     0.041 C 
HETATM    3  C7  UNL     1      -0.280   0.079   0.229  1.00  0.00     0.049 C 
HETATM    4  C8  UNL     1       0.152  -1.363   0.112  1.00  0.00    -0.018 C 
HETATM    5  C9  UNL     1      -0.916  -2.178   0.157  1.00  0.00    -0.022 C 
HETATM    6  C10 UNL     1      -0.946  -3.679   0.073  1.00  0.00     0.028 C 
HETATM    7  C11 UNL     1       1.579  -1.810  -0.068  1.00  0.00     0.175 C 
HETATM    8  O3  UNL     1       2.178  -2.114   1.164  1.00  0.00    -0.295 OA
HETATM    9  C12 UNL     1       3.524  -1.992   1.094  1.00  0.00     0.302 C 
HETATM   10  C13 UNL     1       3.904  -1.443  -0.277  1.00  0.00     0.234 C 
HETATM   11  C14 UNL     1       2.564  -0.965  -0.868  1.00  0.00     0.215 C 
HETATM   12  C15 UNL     1       2.330   0.554  -0.863  1.00  0.00     0.160 C 
HETATM   13  C16 UNL     1       2.050   1.125   0.534  1.00  0.00     0.061 C 
HETATM   14  C17 UNL     1       0.604   1.014   1.082  1.00  0.00     0.107 C 
HETATM   15  C18 UNL     1       0.631   0.563   2.557  1.00  0.00     0.031 C 
HETATM   16  O8  UNL     1       2.465  -1.351  -2.217  1.00  0.00    -0.217 OA
HETATM   17  C26 UNL     1       4.611  -2.554  -1.054  1.00  0.00     0.046 C 
HETATM   18  O9  UNL     1       4.824  -0.387  -0.115  1.00  0.00    -0.213 OA
HETATM   19  O10 UNL     1       4.282  -2.291   1.991  1.00  0.00    -0.261 OA
ENDROOT
BRANCH   1  20
HETATM   20  O2  UNL     1      -3.159  -1.984   1.068  1.00  0.00    -0.297 OA
BRANCH  20  21
HETATM   21  C4  UNL     1      -4.422  -1.464   1.060  1.00  0.00     0.292 C 
HETATM   22  O1  UNL     1      -4.744  -0.725   0.153  1.00  0.00    -0.260 OA
BRANCH  21  23
HETATM   23  C3  UNL     1      -5.336  -1.659   2.053  1.00  0.00     0.037 C 
HETATM   24  C2  UNL     1      -5.080  -2.405   3.145  1.00  0.00    -0.025 C 
HETATM   25  C1  UNL     1      -3.816  -3.142   3.504  1.00  0.00     0.030 C 
HETATM   26  C27 UNL     1      -6.692  -0.992   1.911  1.00  0.00     0.036 C 
ENDBRANCH  21  23
ENDBRANCH  20  21
ENDBRANCH   1  20
BRANCH  14  27
HETATM   27  O4  UNL     1      -0.031   2.258   0.982  1.00  0.00    -0.306 OA
BRANCH  27  28
HETATM   28  C19 UNL     1       0.343   3.318   1.750  1.00  0.00     0.272 C 
HETATM   29  O5  UNL     1       1.265   3.339   2.532  1.00  0.00    -0.264 OA
HETATM   30  C20 UNL     1      -0.576   4.494   1.483  1.00  0.00     0.106 C 
ENDBRANCH  27  28
ENDBRANCH  14  27
BRANCH  12  31
HETATM   31  O6  UNL     1       3.440   1.180  -1.441  1.00  0.00    -0.299 OA
BRANCH  31  32
HETATM   32  C21 UNL     1       3.448   2.003  -2.528  1.00  0.00     0.288 C 
HETATM   33  O7  UNL     1       4.506   2.387  -2.983  1.00  0.00    -0.260 OA
BRANCH  32  34
HETATM   34  C22 UNL     1       2.134   2.471  -3.162  1.00  0.00     0.019 C 
HETATM   35  C23 UNL     1       1.411   1.405  -4.004  1.00  0.00     0.032 C 
BRANCH  34  36
HETATM   36  C24 UNL     1       1.227   3.323  -2.255  1.00  0.00     0.027 C 
HETATM   37  C25 UNL     1       0.209   4.173  -3.030  1.00  0.00     0.005 C 
ENDBRANCH  34  36
ENDBRANCH  32  34
ENDBRANCH  31  32
ENDBRANCH  12  31
TORSDOF 9
