REMARK  0 active torsions:
REMARK  status: ('A' for Active; 'I' for Inactive)
ROOT
HETATM    1  N1  UNL     1      -0.073  -0.014  -0.413  1.00  0.00     0.143 N 
HETATM    2  C1  UNL     1      -1.215  -0.667   0.209  1.00  0.00     0.285 C 
HETATM    3  C2  UNL     1       1.172  -0.652  -0.013  1.00  0.00     0.285 C 
HETATM    4  C3  UNL     1      -0.051   1.406  -0.095  1.00  0.00     0.285 C 
ENDROOT
TORSDOF 0
