REMARK  1 active torsions:
REMARK  status: ('A' for Active; 'I' for Inactive)
REMARK    1  A    between atoms: C5_5  and  C7_7 
ROOT
HETATM    1  C7  UNL     1       0.539  -0.470  -0.819  1.00  0.00     0.171 C 
HETATM    2  O1  UNL     1       0.340  -1.600   0.004  1.00  0.00    -0.325 OA
HETATM    3  C8  UNL     1      -1.030  -1.655   0.327  1.00  0.00     0.337 C 
HETATM    4  C9  UNL     1      -1.212  -2.142   1.762  1.00  0.00     0.069 C 
HETATM    5  N1  UNL     1      -1.569  -0.328   0.102  1.00  0.00     0.165 N 
HETATM    6  C10 UNL     1      -0.848   0.139  -1.067  1.00  0.00     0.253 C 
HETATM    7  C11 UNL     1      -1.427  -0.318  -2.419  1.00  0.00     0.038 C 
HETATM    8  C12 UNL     1      -3.014  -0.257   0.023  1.00  0.00     0.288 C 
ENDROOT
BRANCH   1   9
HETATM    9  C5  UNL     1       1.508   0.503  -0.163  1.00  0.00     0.007 A 
HETATM   10  C4  UNL     1       2.629   0.894  -0.798  1.00  0.00    -0.002 A 
HETATM   11  C3  UNL     1       3.492   1.746  -0.223  1.00  0.00    -0.000 A 
HETATM   12  C2  UNL     1       3.247   2.226   1.005  1.00  0.00    -0.000 A 
HETATM   13  C1  UNL     1       2.133   1.849   1.650  1.00  0.00    -0.000 A 
HETATM   14  C6  UNL     1       1.276   0.996   1.068  1.00  0.00    -0.002 A 
ENDBRANCH   1   9
TORSDOF 1
