REMARK  0 active torsions:
REMARK  status: ('A' for Active; 'I' for Inactive)
ROOT
HETATM    1  C1  UNL     1       1.056  -0.754  -0.039  1.00  0.00     0.024 A 
HETATM    2  C2  UNL     1       1.288   0.557  -0.111  1.00  0.00     0.098 A 
HETATM    3  C3  UNL     1       0.267   1.423  -0.088  1.00  0.00     0.024 A 
HETATM    4  C4  UNL     1      -0.996   0.942   0.006  1.00  0.00     0.101 A 
HETATM    5  C5  UNL     1      -1.228  -0.396   0.077  1.00  0.00     0.019 A 
HETATM    6  C6  UNL     1      -0.180  -1.247   0.053  1.00  0.00     0.004 A 
HETATM    7  C7  UNL     1      -2.503  -0.843   0.170  1.00  0.00    -0.015 A 
HETATM    8  C8  UNL     1      -3.510   0.048   0.188  1.00  0.00     0.065 A 
HETATM    9  C9  UNL     1      -3.271   1.378   0.117  1.00  0.00     0.300 A 
HETATM   10  O1  UNL     1      -2.008   1.864   0.025  1.00  0.00    -0.273 OA
HETATM   11  O2  UNL     1      -4.214   2.143   0.137  1.00  0.00    -0.259 OA
HETATM   12  C10 UNL     1      -2.928  -2.299   0.258  1.00  0.00     0.031 C 
HETATM   13  C11 UNL     1       0.517   2.913  -0.167  1.00  0.00     0.035 C 
HETATM   14  O3  UNL     1       2.494   0.791  -0.192  1.00  0.00    -0.312 OA
HETATM   15  C12 UNL     1       3.105  -0.280  -0.179  1.00  0.00     0.078 A 
HETATM   16  C13 UNL     1       2.265  -1.324  -0.083  1.00  0.00     0.022 A 
HETATM   17  C14 UNL     1       4.599  -0.387  -0.258  1.00  0.00     0.058 C 
ENDROOT
TORSDOF 0
