REMARK  1 active torsions:
REMARK  status: ('A' for Active; 'I' for Inactive)
REMARK    1  A    between atoms: C2_2  and  C9_10 
ROOT
HETATM    1  C1  UNL     1       0.357  -1.714   0.088  1.00  0.00     0.032 C 
HETATM    2  C2  UNL     1       1.018  -0.331   0.007  1.00  0.00     0.111 C 
HETATM    3  O1  UNL     1       0.228   0.585  -0.720  1.00  0.00    -0.360 OA
HETATM    4  C3  UNL     1      -1.143   0.691  -0.454  1.00  0.00     0.093 C 
HETATM    5  C4  UNL     1      -1.830  -0.676  -0.370  1.00  0.00     0.027 C 
HETATM    6  C5  UNL     1      -1.094  -1.637   0.565  1.00  0.00     0.005 C 
HETATM    7  C6  UNL     1      -1.727   1.446  -1.667  1.00  0.00     0.030 C 
HETATM    8  C7  UNL     1      -1.433   1.565   0.774  1.00  0.00     0.030 C 
HETATM    9  C8  UNL     1       1.357   0.200   1.406  1.00  0.00     0.034 C 
ENDROOT
BRANCH   2  10
HETATM   10  C9  UNL     1       2.297  -0.503  -0.816  1.00  0.00     0.000 C 
HETATM   11  C10 UNL     1       3.545  -0.146  -0.478  1.00  0.00    -0.003 C 
ENDBRANCH   2  10
TORSDOF 1
