REMARK  2 active torsions:
REMARK  status: ('A' for Active; 'I' for Inactive)
REMARK    1  A    between atoms: C1_1  and  C2_3 
REMARK    2  A    between atoms: C14_15  and  C17_18 
ROOT
HETATM    1  C2  UNL     1      -3.437  -1.923  -0.041  1.00  0.00     0.034 C 
HETATM    2  C3  UNL     1      -2.320  -2.438  -0.602  1.00  0.00    -0.042 C 
HETATM    3  C4  UNL     1      -2.224  -3.817  -1.228  1.00  0.00     0.026 C 
HETATM    4  C5  UNL     1      -1.000  -1.680  -0.652  1.00  0.00     0.022 C 
HETATM    5  C6  UNL     1      -1.119  -0.154  -0.452  1.00  0.00     0.022 C 
HETATM    6  C7  UNL     1      -2.054   0.097   0.744  1.00  0.00     0.009 C 
HETATM    7  C8  UNL     1      -3.438  -0.523   0.541  1.00  0.00     0.032 C 
HETATM    8  C9  UNL     1       0.233   0.516  -0.169  1.00  0.00    -0.025 A 
HETATM    9  C10 UNL     1       1.373  -0.167   0.073  1.00  0.00    -0.001 A 
HETATM   10  C11 UNL     1       1.373  -1.681   0.120  1.00  0.00     0.028 C 
HETATM   11  C12 UNL     1      -0.011  -2.291   0.346  1.00  0.00     0.009 C 
HETATM   12  C13 UNL     1       2.546   0.477   0.275  1.00  0.00     0.123 A 
HETATM   13  C14 UNL     1       2.595   1.825   0.256  1.00  0.00     0.003 A 
HETATM   14  C15 UNL     1       1.455   2.503   0.058  1.00  0.00    -0.003 A 
HETATM   15  C16 UNL     1       0.301   1.859  -0.151  1.00  0.00    -0.005 A 
HETATM   16  O2  UNL     1       3.690  -0.237   0.478  1.00  0.00    -0.191 OA
HETATM   17  C20 UNL     1      -1.722   0.439  -1.750  1.00  0.00     0.005 C 
ENDROOT
BRANCH   1  18
HETATM   18  C1  UNL     1      -4.618  -2.607   0.023  1.00  0.00     0.206 C 
HETATM   19  O1  UNL     1      -4.731  -3.748  -0.370  1.00  0.00    -0.644 OA
HETATM   20  O3  UNL     1      -5.728  -2.035   0.556  1.00  0.00    -0.644 OA
ENDBRANCH   1  18
BRANCH  13  21
HETATM   21  C17 UNL     1       3.900   2.587   0.463  1.00  0.00     0.024 C 
HETATM   22  C18 UNL     1       4.214   3.503  -0.733  1.00  0.00     0.005 C 
HETATM   23  C19 UNL     1       3.875   3.378   1.781  1.00  0.00     0.005 C 
ENDBRANCH  13  21
TORSDOF 2
