REMARK  11 active torsions:
REMARK  status: ('A' for Active; 'I' for Inactive)
REMARK    1  A    between atoms: C1_1  and  O1_2 
REMARK    2  A    between atoms: O1_2  and  C2_3 
REMARK    3  A    between atoms: C5_6  and  O8_35 
REMARK    4  A    between atoms: C7_8  and  C22_26 
REMARK    5  A    between atoms: C8_9  and  O3_15 
REMARK    6  A    between atoms: O3_15  and  C13_16 
REMARK    7  A    between atoms: C13_16  and  C14_17 
REMARK    8  A    between atoms: C15_18  and  C16_19 
REMARK    9  A    between atoms: C22_26  and  O5_27 
REMARK   10  A    between atoms: O5_27  and  C23_28 
REMARK   11  A    between atoms: O8_35  and  C28_36 
ROOT
HETATM    1  C2  UNL     1      -0.204   0.362   1.189  1.00  0.00     0.185 C 
HETATM    2  C3  UNL     1      -1.054   0.006   2.413  1.00  0.00     0.182 C 
HETATM    3  C4  UNL     1      -1.497  -1.443   2.557  1.00  0.00     0.115 C 
HETATM    4  C5  UNL     1      -0.235  -2.296   2.485  1.00  0.00     0.161 C 
HETATM    5  C6  UNL     1      -0.006  -2.231   0.959  1.00  0.00     0.151 C 
HETATM    6  C7  UNL     1       0.652  -0.829   0.626  1.00  0.00     0.113 C 
HETATM    7  C8  UNL     1       0.646  -0.690  -0.930  1.00  0.00     0.132 C 
HETATM    8  C9  UNL     1       1.319  -1.821  -1.704  1.00  0.00     0.033 C 
HETATM    9  C10 UNL     1       1.782  -2.972  -0.813  1.00  0.00     0.035 C 
HETATM   10  C11 UNL     1       0.803  -3.404   0.299  1.00  0.00     0.152 C 
HETATM   11  O2  UNL     1      -0.107  -4.283  -0.320  1.00  0.00    -0.224 OA
HETATM   12  C12 UNL     1       1.617  -4.306   1.250  1.00  0.00     0.035 C 
HETATM   13  O7  UNL     1      -1.303  -2.186   0.390  1.00  0.00    -0.358 OA
HETATM   14  C25 UNL     1      -2.284  -1.953   1.349  1.00  0.00     0.102 C 
HETATM   15  C26 UNL     1      -3.059  -3.264   1.584  1.00  0.00     0.030 C 
HETATM   16  C27 UNL     1      -3.324  -0.948   0.830  1.00  0.00     0.030 C 
HETATM   17  O10 UNL     1      -1.393   0.837   3.226  1.00  0.00    -0.293 OA
ENDROOT
BRANCH   7  18
HETATM   18  O3  UNL     1       1.107   0.567  -1.357  1.00  0.00    -0.301 OA
BRANCH  18  19
HETATM   19  C13 UNL     1       0.432   1.200  -2.372  1.00  0.00     0.296 C 
HETATM   20  O4  UNL     1      -0.368   0.573  -3.029  1.00  0.00    -0.259 OA
BRANCH  19  21
HETATM   21  C14 UNL     1       0.676   2.508  -2.656  1.00  0.00     0.068 C 
HETATM   22  C15 UNL     1       0.056   3.345  -3.512  1.00  0.00     0.005 C 
BRANCH  22  23
HETATM   23  C16 UNL     1      -1.107   3.285  -4.199  1.00  0.00     0.000 A 
HETATM   24  C17 UNL     1      -1.314   4.170  -5.198  1.00  0.00     0.000 A 
HETATM   25  C18 UNL     1      -2.446   4.183  -5.921  1.00  0.00     0.000 A 
HETATM   26  C19 UNL     1      -3.434   3.323  -5.641  1.00  0.00     0.000 A 
HETATM   27  C20 UNL     1      -3.280   2.473  -4.617  1.00  0.00     0.000 A 
HETATM   28  C21 UNL     1      -2.140   2.470  -3.908  1.00  0.00     0.000 A 
ENDBRANCH  22  23
ENDBRANCH  19  21
ENDBRANCH  18  19
ENDBRANCH   7  18
BRANCH   6  29
HETATM   29  C22 UNL     1       2.068  -0.730   1.261  1.00  0.00     0.159 C 
BRANCH  29  30
HETATM   30  O5  UNL     1       2.937   0.041   0.473  1.00  0.00    -0.301 OA
BRANCH  30  31
HETATM   31  C23 UNL     1       4.207   0.202   0.932  1.00  0.00     0.272 C 
HETATM   32  C24 UNL     1       4.990   1.096  -0.006  1.00  0.00     0.106 C 
HETATM   33  O6  UNL     1       4.643  -0.294   1.946  1.00  0.00    -0.264 OA
ENDBRANCH  30  31
ENDBRANCH  29  30
ENDBRANCH   6  29
BRANCH   1  34
HETATM   34  O1  UNL     1       0.626   1.478   1.438  1.00  0.00    -0.326 OA
BRANCH  34  35
HETATM   35  C1  UNL     1       0.257   2.736   1.030  1.00  0.00     0.095 A 
HETATM   36  C30 UNL     1      -1.011   3.164   0.868  1.00  0.00     0.024 A 
HETATM   37  C31 UNL     1      -1.290   4.401   0.425  1.00  0.00     0.002 A 
HETATM   38  C32 UNL     1      -0.299   5.247   0.110  1.00  0.00     0.000 A 
HETATM   39  C33 UNL     1       0.972   4.842   0.243  1.00  0.00     0.002 A 
HETATM   40  C34 UNL     1       1.231   3.604   0.690  1.00  0.00     0.024 A 
ENDBRANCH  34  35
ENDBRANCH   1  34
BRANCH   4  41
HETATM   41  O8  UNL     1      -0.512  -3.572   2.977  1.00  0.00    -0.301 OA
BRANCH  41  42
HETATM   42  C28 UNL     1      -0.293  -3.947   4.270  1.00  0.00     0.272 C 
HETATM   43  O9  UNL     1      -0.490  -5.083   4.647  1.00  0.00    -0.264 OA
HETATM   44  C29 UNL     1       0.178  -2.870   5.230  1.00  0.00     0.106 C 
ENDBRANCH  41  42
ENDBRANCH   4  41
TORSDOF 11
