REMARK  2 active torsions:
REMARK  status: ('A' for Active; 'I' for Inactive)
REMARK    1  A    between atoms: C14_15  and  O2_21 
REMARK    2  A    between atoms: C15_16  and  O1_19 
ROOT
HETATM    1  C1  UNL     1      -5.281  -0.691   0.561  1.00  0.00     0.119 A 
HETATM    2  C2  UNL     1      -4.414  -1.785   0.553  1.00  0.00     0.119 A 
HETATM    3  C3  UNL     1      -3.018  -1.570   0.441  1.00  0.00     0.027 A 
HETATM    4  C4  UNL     1      -2.469  -0.264   0.328  1.00  0.00     0.014 A 
HETATM    5  C5  UNL     1      -3.359   0.844   0.324  1.00  0.00    -0.017 A 
HETATM    6  C6  UNL     1      -4.752   0.617   0.447  1.00  0.00     0.022 A 
HETATM    7  C7  UNL     1      -2.834   2.225   0.180  1.00  0.00     0.051 C 
HETATM    8  C8  UNL     1      -1.437   2.393   0.805  1.00  0.00     0.111 C 
HETATM    9  N1  UNL     1      -0.506   1.295   0.438  1.00  0.00    -0.326 N 
HETATM   10  C9  UNL     1      -1.008  -0.023   0.219  1.00  0.00     0.060 A 
HETATM   11  C10 UNL     1      -0.096  -1.068  -0.103  1.00  0.00     0.017 A 
HETATM   12  C11 UNL     1       1.293  -0.803  -0.209  1.00  0.00     0.005 A 
HETATM   13  C12 UNL     1       1.787   0.520   0.000  1.00  0.00     0.042 A 
HETATM   14  C13 UNL     1       0.881   1.563   0.318  1.00  0.00     0.078 A 
HETATM   15  C14 UNL     1       3.182   0.779  -0.115  1.00  0.00     0.118 A 
HETATM   16  C15 UNL     1       4.070  -0.279  -0.430  1.00  0.00     0.116 A 
HETATM   17  C16 UNL     1       3.576  -1.588  -0.633  1.00  0.00     0.026 A 
HETATM   18  C17 UNL     1       2.193  -1.852  -0.525  1.00  0.00     0.002 A 
HETATM   19  O3  UNL     1      -5.125  -2.906   0.666  1.00  0.00    -0.300 OA
HETATM   20  C20 UNL     1      -6.529  -2.572   0.754  1.00  0.00     0.304 A 
HETATM   21  O4  UNL     1      -6.535  -1.129   0.680  1.00  0.00    -0.300 OA
ENDROOT
BRANCH  15  22
HETATM   22  O2  UNL     1       3.674   2.014   0.074  1.00  0.00    -0.326 OA
HETATM   23  C19 UNL     1       4.680   2.473  -0.816  1.00  0.00     0.181 C 
ENDBRANCH  15  22
BRANCH  16  24
HETATM   24  O1  UNL     1       5.385  -0.041  -0.535  1.00  0.00    -0.326 OA
HETATM   25  C18 UNL     1       6.240  -1.141  -0.811  1.00  0.00     0.181 C 
ENDBRANCH  16  24
TORSDOF 2
