REMARK  1 active torsions:
REMARK  status: ('A' for Active; 'I' for Inactive)
REMARK    1  A    between atoms: C15_16  and  C17_19 
ROOT
HETATM    1  C1  UNL     1      -4.443  -3.049  -0.558  1.00  0.00     0.291 A 
HETATM    2  O1  UNL     1      -3.947  -4.273  -0.917  1.00  0.00    -0.294 OA
HETATM    3  C2  UNL     1      -2.538  -4.101  -1.009  1.00  0.00     0.174 A 
HETATM    4  C3  UNL     1      -2.337  -2.650  -0.683  1.00  0.00    -0.013 A 
HETATM    5  C4  UNL     1      -3.512  -2.078  -0.405  1.00  0.00     0.035 A 
HETATM    6  C5  UNL     1      -3.688  -0.641  -0.031  1.00  0.00     0.032 C 
HETATM    7  C6  UNL     1      -2.332  -0.007   0.323  1.00  0.00     0.009 C 
HETATM    8  C7  UNL     1      -1.188  -0.416  -0.637  1.00  0.00     0.023 C 
HETATM    9  C8  UNL     1      -1.010  -1.948  -0.634  1.00  0.00     0.032 C 
HETATM   10  C9  UNL     1      -0.250  -2.407   0.604  1.00  0.00     0.074 C 
HETATM   11  C10 UNL     1       1.016  -1.612   0.860  1.00  0.00     0.175 C 
HETATM   12  C11 UNL     1       1.115  -0.305   0.482  1.00  0.00     0.056 A 
HETATM   13  C12 UNL     1       0.102   0.286  -0.194  1.00  0.00    -0.018 A 
HETATM   14  C13 UNL     1       0.230   1.594  -0.477  1.00  0.00    -0.004 A 
HETATM   15  C14 UNL     1       1.325   2.286  -0.150  1.00  0.00    -0.003 A 
HETATM   16  C15 UNL     1       2.352   1.694   0.477  1.00  0.00     0.003 A 
HETATM   17  C16 UNL     1       2.239   0.388   0.805  1.00  0.00     0.129 A 
HETATM   18  O2  UNL     1       3.260  -0.199   1.494  1.00  0.00    -0.190 OA
HETATM   19  O3  UNL     1       1.876  -2.229   1.450  1.00  0.00    -0.291 OA
HETATM   20  C20 UNL     1      -1.553  -0.019  -2.092  1.00  0.00     0.005 C 
HETATM   21  O4  UNL     1      -5.625  -2.846  -0.388  1.00  0.00    -0.260 OA
ENDROOT
BRANCH  16  22
HETATM   22  C17 UNL     1       3.581   2.533   0.823  1.00  0.00     0.024 C 
HETATM   23  C18 UNL     1       4.094   3.380  -0.357  1.00  0.00     0.005 C 
HETATM   24  C19 UNL     1       3.286   3.415   2.047  1.00  0.00     0.005 C 
ENDBRANCH  16  22
TORSDOF 1
