REMARK WARNING: 32 MAX_TORS EXCEEDED!!!
REMARK  33 active torsions:
REMARK  status: ('A' for Active; 'I' for Inactive)
REMARK    1  A    between atoms: C1_1  and  O4_46 
REMARK    2  A    between atoms: C7_8  and  C10_12 
REMARK    3  A    between atoms: C10_12  and  C11_13 
REMARK    4  A    between atoms: C11_13  and  C12_14 
REMARK    5  A    between atoms: C12_14  and  C13_15 
REMARK    6  A    between atoms: C13_15  and  C14_16 
REMARK    7  A    between atoms: C14_16  and  C15_17 
REMARK    8  A    between atoms: C15_17  and  C16_18 
REMARK    9  A    between atoms: C16_18  and  C17_19 
REMARK   10  A    between atoms: C17_19  and  C18_20 
REMARK   11  A    between atoms: C18_20  and  C19_21 
REMARK   12  A    between atoms: C19_21  and  C20_22 
REMARK   13  A    between atoms: C20_22  and  C21_23 
REMARK   14  A    between atoms: C21_23  and  C22_24 
REMARK   15  A    between atoms: C22_24  and  C23_25 
REMARK   16  A    between atoms: C23_25  and  C24_26 
REMARK   17  A    between atoms: C24_26  and  C25_27 
REMARK   18  A    between atoms: C25_27  and  C26_28 
REMARK   19  A    between atoms: C26_28  and  C27_29 
REMARK   20  A    between atoms: C27_29  and  C28_30 
REMARK   21  A    between atoms: C28_30  and  C29_31 
REMARK   22  A    between atoms: C29_31  and  C30_32 
REMARK   23  A    between atoms: C30_32  and  C31_33 
REMARK   24  A    between atoms: C31_33  and  C32_34 
REMARK   25  A    between atoms: C32_34  and  C33_35 
REMARK   26  A    between atoms: C33_35  and  C34_36 
REMARK   27  A    between atoms: C34_36  and  C35_37 
REMARK   28  A    between atoms: C35_37  and  C36_38 
REMARK   29  A    between atoms: C36_38  and  C37_39 
REMARK   30  A    between atoms: C37_39  and  C38_40 
REMARK   31  A    between atoms: C38_40  and  C39_41 
REMARK   32  A    between atoms: C39_41  and  C40_42 
REMARK   33  A    between atoms: C40_42  and  C41_43 
ROOT
HETATM    1  C19 UNL     1      -1.440   2.613   0.012  1.00  0.00     0.000 C 
ENDROOT
BRANCH   1   2
HETATM    2  C18 UNL     1      -2.084   4.008   0.012  1.00  0.00     0.000 C 
BRANCH   2   3
HETATM    3  C17 UNL     1      -3.617   3.925   0.013  1.00  0.00     0.000 C 
BRANCH   3   4
HETATM    4  C16 UNL     1      -4.258   5.321   0.016  1.00  0.00     0.000 C 
BRANCH   4   5
HETATM    5  C15 UNL     1      -5.791   5.232   0.022  1.00  0.00     0.000 C 
BRANCH   5   6
HETATM    6  C14 UNL     1      -6.445   6.622   0.026  1.00  0.00     0.000 C 
BRANCH   6   7
HETATM    7  C13 UNL     1      -7.976   6.512   0.038  1.00  0.00     0.000 C 
BRANCH   7   8
HETATM    8  C12 UNL     1      -8.656   7.890   0.028  1.00  0.00     0.000 C 
BRANCH   8   9
HETATM    9  C11 UNL     1     -10.183   7.732   0.040  1.00  0.00     0.007 C 
BRANCH   9  10
HETATM   10  C10 UNL     1     -10.922   9.079  -0.010  1.00  0.00     0.052 C 
BRANCH  10  11
HETATM   11  C7  UNL     1     -12.429   8.917  -0.001  1.00  0.00     0.081 A 
HETATM   12  O1  UNL     1     -12.903   7.644  -0.101  1.00  0.00    -0.311 OA
HETATM   13  C5  UNL     1     -14.253   7.443  -0.080  1.00  0.00     0.107 A 
HETATM   14  C4  UNL     1     -15.202   8.479   0.002  1.00  0.00     0.087 A 
HETATM   15  C6  UNL     1     -14.722   6.128  -0.145  1.00  0.00     0.049 A 
HETATM   16  C3  UNL     1     -16.580   8.202   0.010  1.00  0.00     0.138 A 
HETATM   17  C9  UNL     1     -14.690   9.871   0.083  1.00  0.00     0.201 A 
HETATM   18  C2  UNL     1     -16.972   6.860  -0.059  1.00  0.00     0.052 A 
HETATM   19  O3  UNL     1     -17.542   9.162   0.082  1.00  0.00    -0.190 OA
HETATM   20  C1  UNL     1     -16.081   5.785  -0.136  1.00  0.00     0.098 A 
HETATM   21  C8  UNL     1     -13.216  10.006   0.085  1.00  0.00     0.062 A 
HETATM   22  O2  UNL     1     -15.400  10.868   0.153  1.00  0.00    -0.286 OA
BRANCH  20  23
HETATM   23  O4  UNL     1     -16.580   4.508  -0.197  1.00  0.00    -0.328 OA
HETATM   24  C43 UNL     1     -15.669   3.435  -0.264  1.00  0.00     0.181 C 
ENDBRANCH  20  23
ENDBRANCH  10  11
ENDBRANCH   9  10
ENDBRANCH   8   9
ENDBRANCH   7   8
ENDBRANCH   6   7
ENDBRANCH   5   6
ENDBRANCH   4   5
ENDBRANCH   3   4
ENDBRANCH   2   3
ENDBRANCH   1   2
BRANCH   1  25
HETATM   25  C20 UNL     1       0.092   2.708   0.012  1.00  0.00     0.000 C 
BRANCH  25  26
HETATM   26  C21 UNL     1       0.754   1.322   0.013  1.00  0.00     0.000 C 
BRANCH  26  27
HETATM   27  C22 UNL     1       2.285   1.440   0.013  1.00  0.00     0.000 C 
BRANCH  27  28
HETATM   28  C23 UNL     1       2.966   0.064   0.013  1.00  0.00     0.000 C 
BRANCH  28  29
HETATM   29  C24 UNL     1       4.497   0.193   0.013  1.00  0.00     0.000 C 
BRANCH  29  30
HETATM   30  C25 UNL     1       5.179  -1.183   0.013  1.00  0.00     0.000 C 
BRANCH  30  31
HETATM   31  C26 UNL     1       6.710  -1.059   0.013  1.00  0.00     0.000 C 
BRANCH  31  32
HETATM   32  C27 UNL     1       7.385  -2.439   0.013  1.00  0.00     0.000 C 
BRANCH  32  33
HETATM   33  C28 UNL     1       8.916  -2.321   0.013  1.00  0.00     0.000 C 
BRANCH  33  34
HETATM   34  C29 UNL     1       9.587  -3.703   0.013  1.00  0.00     0.000 C 
BRANCH  34  35
HETATM   35  C30 UNL     1      11.118  -3.587   0.013  1.00  0.00     0.000 C 
BRANCH  35  36
HETATM   36  C31 UNL     1      11.789  -4.969   0.013  1.00  0.00     0.000 C 
BRANCH  36  37
HETATM   37  C32 UNL     1      13.320  -4.852   0.013  1.00  0.00     0.000 C 
BRANCH  37  38
HETATM   38  C33 UNL     1      13.992  -6.233   0.013  1.00  0.00     0.000 C 
BRANCH  38  39
HETATM   39  C34 UNL     1      15.523  -6.114   0.013  1.00  0.00     0.000 C 
BRANCH  39  40
HETATM   40  C35 UNL     1      16.197  -7.494   0.013  1.00  0.00     0.000 C 
BRANCH  40  41
HETATM   41  C36 UNL     1      17.729  -7.375   0.013  1.00  0.00     0.000 C 
BRANCH  41  42
HETATM   42  C37 UNL     1      18.403  -8.756   0.013  1.00  0.00     0.000 C 
BRANCH  42  43
HETATM   43  C38 UNL     1      19.934  -8.637   0.013  1.00  0.00     0.000 C 
BRANCH  43  44
HETATM   44  C39 UNL     1      20.611 -10.016   0.013  1.00  0.00     0.000 C 
BRANCH  44  45
HETATM   45  C40 UNL     1      22.143  -9.896   0.013  1.00  0.00     0.000 C 
BRANCH  45  46
HETATM   46  C41 UNL     1      22.824 -11.273   0.013  1.00  0.00     0.000 C 
HETATM   47  C42 UNL     1      24.353 -11.146   0.013  1.00  0.00     0.000 C 
ENDBRANCH  45  46
ENDBRANCH  44  45
ENDBRANCH  43  44
ENDBRANCH  42  43
ENDBRANCH  41  42
ENDBRANCH  40  41
ENDBRANCH  39  40
ENDBRANCH  38  39
ENDBRANCH  37  38
ENDBRANCH  36  37
ENDBRANCH  35  36
ENDBRANCH  34  35
ENDBRANCH  33  34
ENDBRANCH  32  33
ENDBRANCH  31  32
ENDBRANCH  30  31
ENDBRANCH  29  30
ENDBRANCH  28  29
ENDBRANCH  27  28
ENDBRANCH  26  27
ENDBRANCH  25  26
ENDBRANCH   1  25
TORSDOF 33
