REMARK  9 active torsions:
REMARK  status: ('A' for Active; 'I' for Inactive)
REMARK    1  A    between atoms: C2_2  and  O8_26 
REMARK    2  A    between atoms: C4_4  and  C16_21 
REMARK    3  A    between atoms: C11_12  and  O3_15 
REMARK    4  A    between atoms: O3_15  and  C13_16 
REMARK    5  A    between atoms: C16_21  and  O6_22 
REMARK    6  A    between atoms: O6_22  and  C17_23 
REMARK    7  A    between atoms: O8_26  and  C19_27 
REMARK    8  A    between atoms: C19_27  and  C20_28 
REMARK    9  A    between atoms: C20_28  and  C21_29 
ROOT
HETATM    1  C1  UNL     1       0.418   2.358   1.222  1.00  0.00    -0.019 C 
HETATM    2  C2  UNL     1       0.028   0.924   1.497  1.00  0.00     0.142 C 
HETATM    3  C3  UNL     1      -0.557   0.259   0.245  1.00  0.00     0.040 C 
HETATM    4  C4  UNL     1       0.120   0.533  -1.132  1.00  0.00     0.064 C 
HETATM    5  C5  UNL     1       0.128   2.076  -1.273  1.00  0.00     0.139 C 
HETATM    6  C6  UNL     1       0.449   2.857  -0.022  1.00  0.00    -0.003 C 
HETATM    7  O1  UNL     1       0.952   2.496  -2.331  1.00  0.00    -0.350 OA
HETATM    8  C7  UNL     1       2.286   2.053  -2.214  1.00  0.00     0.175 C 
HETATM    9  C8  UNL     1       2.532   1.099  -1.066  1.00  0.00     0.150 A 
HETATM   10  C9  UNL     1       1.585  -0.062  -1.303  1.00  0.00     0.061 C 
HETATM   11  C10 UNL     1       1.783  -1.329  -0.448  1.00  0.00     0.005 C 
HETATM   12  C11 UNL     1       2.031  -0.300  -2.797  1.00  0.00     0.159 C 
HETATM   13  C12 UNL     1       2.543   1.051  -3.335  1.00  0.00     0.209 C 
HETATM   14  O2  UNL     1       1.915   1.412  -4.542  1.00  0.00    -0.218 OA
HETATM   15  C15 UNL     1       3.843   0.953  -0.511  1.00  0.00     0.172 A 
HETATM   16  O5  UNL     1       2.956   1.591   0.376  1.00  0.00    -0.351 OA
HETATM   17  C24 UNL     1       0.826   3.191   2.414  1.00  0.00     0.029 C 
ENDROOT
BRANCH   2  18
HETATM   18  O8  UNL     1      -0.909   0.929   2.552  1.00  0.00    -0.300 OA
BRANCH  18  19
HETATM   19  C19 UNL     1      -1.376  -0.248   3.050  1.00  0.00     0.272 C 
HETATM   20  O9  UNL     1      -0.987  -1.342   2.713  1.00  0.00    -0.264 OA
BRANCH  19  21
HETATM   21  C20 UNL     1      -2.476   0.033   4.063  1.00  0.00     0.096 C 
BRANCH  21  22
HETATM   22  C21 UNL     1      -3.396  -1.158   4.397  1.00  0.00     0.010 C 
HETATM   23  C22 UNL     1      -2.674  -2.245   5.211  1.00  0.00     0.001 C 
HETATM   24  C23 UNL     1      -4.630  -0.669   5.178  1.00  0.00     0.001 C 
ENDBRANCH  21  22
ENDBRANCH  19  21
ENDBRANCH  18  19
ENDBRANCH   2  18
BRANCH   4  25
HETATM   25  C16 UNL     1      -0.809  -0.071  -2.224  1.00  0.00     0.155 C 
BRANCH  25  26
HETATM   26  O6  UNL     1      -2.172   0.154  -1.966  1.00  0.00    -0.302 OA
BRANCH  26  27
HETATM   27  C17 UNL     1      -3.060  -0.344  -2.869  1.00  0.00     0.272 C 
HETATM   28  C18 UNL     1      -4.478  -0.131  -2.378  1.00  0.00     0.106 C 
HETATM   29  O7  UNL     1      -2.764  -0.906  -3.899  1.00  0.00    -0.264 OA
ENDBRANCH  26  27
ENDBRANCH  25  26
ENDBRANCH   4  25
BRANCH  12  30
HETATM   30  O3  UNL     1       3.109  -1.193  -2.904  1.00  0.00    -0.301 OA
BRANCH  30  31
HETATM   31  C13 UNL     1       2.854  -2.515  -3.106  1.00  0.00     0.272 C 
HETATM   32  C14 UNL     1       4.153  -3.296  -3.153  1.00  0.00     0.106 C 
HETATM   33  O4  UNL     1       1.753  -3.004  -3.216  1.00  0.00    -0.264 OA
ENDBRANCH  30  31
ENDBRANCH  12  30
TORSDOF 9
