REMARK  1 active torsions:
REMARK  status: ('A' for Active; 'I' for Inactive)
REMARK    1  A    between atoms: C7_7  and  C10_12 
ROOT
HETATM    1  C1  UNL     1      -2.559   0.510   1.284  1.00  0.00    -0.000 A 
HETATM    2  C2  UNL     1      -1.839   1.087   2.256  1.00  0.00     0.002 A 
HETATM    3  C3  UNL     1      -0.506   1.168   2.135  1.00  0.00     0.018 A 
HETATM    4  C4  UNL     1       0.113   0.680   1.046  1.00  0.00     0.075 A 
HETATM    5  C5  UNL     1      -0.606   0.113   0.058  1.00  0.00     0.032 A 
HETATM    6  C6  UNL     1      -1.942   0.027   0.195  1.00  0.00     0.000 A 
HETATM    7  C7  UNL     1       0.069  -0.441  -1.186  1.00  0.00     0.226 C 
HETATM    8  C8  UNL     1       1.392   0.294  -1.409  1.00  0.00     0.072 C 
HETATM    9  C9  UNL     1       2.211   0.283  -0.117  1.00  0.00     0.129 C 
HETATM   10  N1  UNL     1       1.380   0.776   0.996  1.00  0.00    -0.271 NA
HETATM   11  O1  UNL     1      -0.759  -0.190  -2.313  1.00  0.00    -0.210 OA
ENDROOT
BRANCH   7  12
HETATM   12  C10 UNL     1       0.271  -1.947  -1.030  1.00  0.00     0.218 C 
HETATM   13  O2  UNL     1       0.912  -2.486  -2.083  1.00  0.00    -0.645 OA
HETATM   14  O3  UNL     1      -0.115  -2.633  -0.114  1.00  0.00    -0.645 OA
ENDBRANCH   7  12
TORSDOF 1
