REMARK  6 active torsions:
REMARK  status: ('A' for Active; 'I' for Inactive)
REMARK    1  A    between atoms: C4_4  and  O3_9 
REMARK    2  A    between atoms: C5_6  and  C6_7 
REMARK    3  A    between atoms: O3_9  and  C7_10 
REMARK    4  A    between atoms: C7_10  and  C8_11 
REMARK    5  A    between atoms: C8_11  and  C10_13 
REMARK    6  A    between atoms: C10_13  and  C11_14 
ROOT
HETATM    1  C1  UNL     1      -2.986  -0.136  -1.532  1.00  0.00     0.215 C 
HETATM    2  C2  UNL     1      -2.258  -1.469  -1.500  1.00  0.00     0.220 C 
HETATM    3  C3  UNL     1      -1.183  -1.425  -0.434  1.00  0.00     0.241 C 
HETATM    4  C4  UNL     1      -0.275  -0.251  -0.709  1.00  0.00     0.277 C 
HETATM    5  O1  UNL     1      -1.020   0.944  -0.627  1.00  0.00    -0.326 OA
HETATM    6  C5  UNL     1      -2.007   1.035  -1.621  1.00  0.00     0.184 C 
HETATM    7  O6  UNL     1      -0.449  -2.623  -0.477  1.00  0.00    -0.215 OA
HETATM    8  O7  UNL     1      -3.140  -2.520  -1.187  1.00  0.00    -0.218 OA
HETATM    9  O8  UNL     1      -3.832  -0.111  -2.659  1.00  0.00    -0.218 OA
ENDROOT
BRANCH   4  10
HETATM   10  O3  UNL     1       0.685  -0.147   0.323  1.00  0.00    -0.270 OA
BRANCH  10  11
HETATM   11  C7  UNL     1       2.010   0.015   0.011  1.00  0.00     0.294 C 
HETATM   12  O5  UNL     1       2.346   0.111  -1.151  1.00  0.00    -0.259 OA
BRANCH  11  13
HETATM   13  C8  UNL     1       2.964   0.043   0.988  1.00  0.00     0.044 C 
HETATM   14  C9  UNL     1       4.259   0.178   0.649  1.00  0.00     0.001 C 
BRANCH  13  15
HETATM   15  C10 UNL     1       2.511  -0.084   2.432  1.00  0.00     0.067 C 
BRANCH  15  16
HETATM   16  C11 UNL     1       3.604  -0.052   3.498  1.00  0.00     0.187 C 
HETATM   17  O4  UNL     1       3.014  -0.167   4.778  1.00  0.00    -0.220 OA
ENDBRANCH  15  16
ENDBRANCH  13  15
ENDBRANCH  11  13
ENDBRANCH  10  11
ENDBRANCH   4  10
BRANCH   6  18
HETATM   18  C6  UNL     1      -2.716   2.381  -1.471  1.00  0.00     0.214 C 
HETATM   19  O2  UNL     1      -2.445   3.201  -2.590  1.00  0.00    -0.218 OA
ENDBRANCH   6  18
TORSDOF 6
