REMARK  5 active torsions:
REMARK  status: ('A' for Active; 'I' for Inactive)
REMARK    1  A    between atoms: C4_4  and  O3_9 
REMARK    2  A    between atoms: C5_6  and  C6_7 
REMARK    3  A    between atoms: O3_9  and  C7_10 
REMARK    4  A    between atoms: C9_12  and  C12_18 
REMARK    5  A    between atoms: C10_14  and  C11_16 
ROOT
HETATM    1  O3  UNL     1       0.126  -0.736   0.664  1.00  0.00    -0.324 OA
ENDROOT
BRANCH   1   2
HETATM    2  C4  UNL     1      -1.232  -0.948   0.361  1.00  0.00     0.270 C 
HETATM    3  C3  UNL     1      -1.530  -2.404   0.067  1.00  0.00     0.241 C 
HETATM    4  C2  UNL     1      -0.823  -2.866  -1.186  1.00  0.00     0.220 C 
HETATM    5  O9  UNL     1      -1.136  -3.234   1.132  1.00  0.00    -0.215 OA
HETATM    6  C1  UNL     1      -1.218  -1.950  -2.323  1.00  0.00     0.215 C 
HETATM    7  O10 UNL     1      -1.211  -4.181  -1.491  1.00  0.00    -0.218 OA
HETATM    8  C5  UNL     1      -0.865  -0.519  -1.950  1.00  0.00     0.184 C 
HETATM    9  O11 UNL     1      -0.521  -2.366  -3.472  1.00  0.00    -0.218 OA
HETATM   10  O1  UNL     1      -1.522  -0.146  -0.766  1.00  0.00    -0.326 OA
BRANCH   8  11
HETATM   11  C6  UNL     1      -1.257   0.476  -3.031  1.00  0.00     0.214 C 
HETATM   12  O2  UNL     1      -0.881   1.775  -2.616  1.00  0.00    -0.218 OA
ENDBRANCH   8  11
ENDBRANCH   1   2
BRANCH   1  13
HETATM   13  C7  UNL     1       0.409   0.232   1.637  1.00  0.00     0.207 C 
HETATM   14  C8  UNL     1       1.924   0.271   1.790  1.00  0.00     0.214 C 
HETATM   15  C9  UNL     1       2.267   1.730   2.018  1.00  0.00     0.184 C 
HETATM   16  O8  UNL     1       2.337  -0.520   2.877  1.00  0.00    -0.218 OA
HETATM   17  O4  UNL     1       1.066   2.441   1.985  1.00  0.00    -0.326 OA
HETATM   18  C10 UNL     1       0.087   1.681   1.314  1.00  0.00     0.278 C 
HETATM   19  O5  UNL     1       0.283   1.971  -0.055  1.00  0.00    -0.190 OA
BRANCH  15  20
HETATM   20  C12 UNL     1       3.244   2.292   0.997  1.00  0.00     0.214 C 
HETATM   21  O7  UNL     1       4.476   1.609   1.113  1.00  0.00    -0.218 OA
ENDBRANCH  15  20
BRANCH  18  22
HETATM   22  C11 UNL     1      -1.243   2.245   1.770  1.00  0.00     0.244 C 
HETATM   23  O6  UNL     1      -2.286   1.879   0.897  1.00  0.00    -0.215 OA
ENDBRANCH  18  22
ENDBRANCH   1  13
TORSDOF 5
