REMARK  9 active torsions:
REMARK  status: ('A' for Active; 'I' for Inactive)
REMARK    1  A    between atoms: C5_5  and  C7_8 
REMARK    2  A    between atoms: C7_8  and  C8_9 
REMARK    3  A    between atoms: C9_10  and  C10_11 
REMARK    4  A    between atoms: C10_11  and  C11_12 
REMARK    5  A    between atoms: C11_12  and  C12_13 
REMARK    6  A    between atoms: C13_14  and  C14_15 
REMARK    7  A    between atoms: C13_14  and  C20_21 
REMARK    8  A    between atoms: C14_15  and  C15_16 
REMARK    9  A    between atoms: C15_16  and  C16_17 
ROOT
HETATM    1  C8  UNL     1      -1.169  -3.315  -0.565  1.00  0.00    -0.030 C 
HETATM    2  C9  UNL     1      -2.117  -2.452  -0.973  1.00  0.00    -0.048 C 
HETATM    3  C21 UNL     1      -3.162  -2.776  -2.018  1.00  0.00     0.026 C 
ENDROOT
BRANCH   2   4
HETATM    4  C10 UNL     1      -2.230  -1.033  -0.448  1.00  0.00     0.026 C 
BRANCH   4   5
HETATM    5  C11 UNL     1      -1.144  -0.528   0.515  1.00  0.00     0.030 C 
BRANCH   5   6
HETATM    6  C12 UNL     1      -1.380   0.937   0.798  1.00  0.00    -0.032 C 
HETATM    7  C13 UNL     1      -0.596   1.966   0.429  1.00  0.00    -0.015 C 
BRANCH   7   8
HETATM    8  C14 UNL     1      -0.991   3.395   0.746  1.00  0.00     0.029 C 
BRANCH   8   9
HETATM    9  C15 UNL     1      -0.072   4.050   1.790  1.00  0.00     0.030 C 
BRANCH   9  10
HETATM   10  C16 UNL     1      -0.514   5.463   2.091  1.00  0.00    -0.034 C 
HETATM   11  C17 UNL     1       0.270   6.523   2.354  1.00  0.00    -0.048 C 
HETATM   12  C18 UNL     1      -0.329   7.888   2.610  1.00  0.00     0.026 C 
HETATM   13  C19 UNL     1       1.778   6.484   2.427  1.00  0.00     0.026 C 
ENDBRANCH   9  10
ENDBRANCH   8   9
ENDBRANCH   7   8
BRANCH   7  14
HETATM   14  C20 UNL     1       0.711   1.788  -0.308  1.00  0.00     0.204 C 
HETATM   15  O2  UNL     1       1.754   1.444   0.594  1.00  0.00    -0.216 OA
ENDBRANCH   7  14
ENDBRANCH   5   6
ENDBRANCH   4   5
ENDBRANCH   2   4
BRANCH   1  16
HETATM   16  C7  UNL     1      -0.918  -4.705  -1.098  1.00  0.00     0.054 C 
BRANCH  16  17
HETATM   17  C5  UNL     1       0.560  -4.916  -1.369  1.00  0.00     0.010 A 
HETATM   18  C4  UNL     1       1.218  -5.935  -0.788  1.00  0.00     0.025 A 
HETATM   19  C3  UNL     1       2.525  -6.165  -0.999  1.00  0.00     0.131 A 
HETATM   20  C2  UNL     1       3.173  -5.329  -1.824  1.00  0.00     0.029 A 
HETATM   21  O3  UNL     1       3.160  -7.206  -0.397  1.00  0.00    -0.190 OA
HETATM   22  C1  UNL     1       2.531  -4.311  -2.414  1.00  0.00     0.029 A 
HETATM   23  C6  UNL     1       1.223  -4.088  -2.201  1.00  0.00     0.127 A 
HETATM   24  O1  UNL     1       0.606  -3.047  -2.826  1.00  0.00    -0.191 OA
ENDBRANCH  16  17
ENDBRANCH   1  16
TORSDOF 9
