REMARK  1 active torsions:
REMARK  status: ('A' for Active; 'I' for Inactive)
REMARK    1  A    between atoms: C1_1  and  C13_19 
ROOT
HETATM    1  C1  UNL     1      -2.045   0.128  -0.155  1.00  0.00     0.061 C 
HETATM    2  C2  UNL     1      -1.330  -1.227  -0.151  1.00  0.00     0.123 C 
HETATM    3  C3  UNL     1       0.146  -1.229  -0.618  1.00  0.00     0.168 C 
HETATM    4  C4  UNL     1       1.043  -0.194   0.149  1.00  0.00     0.087 C 
HETATM    5  C5  UNL     1       0.184   1.028   0.550  1.00  0.00     0.185 C 
HETATM    6  C6  UNL     1      -1.242   0.726   0.996  1.00  0.00     0.159 C 
HETATM    7  O1  UNL     1      -1.222  -0.279   1.970  1.00  0.00    -0.301 OA
HETATM    8  C7  UNL     1      -1.354  -1.483   1.352  1.00  0.00     0.274 C 
HETATM    9  O2  UNL     1      -1.401  -2.558   1.907  1.00  0.00    -0.264 OA
HETATM   10  O3  UNL     1       0.822   1.820   1.522  1.00  0.00    -0.221 OA
HETATM   11  C8  UNL     1       1.645  -1.136   1.216  1.00  0.00     0.152 A 
HETATM   12  C9  UNL     1       1.558  -2.546   0.752  1.00  0.00     0.172 A 
HETATM   13  C10 UNL     1       0.700  -2.634  -0.344  1.00  0.00     0.173 A 
HETATM   14  O4  UNL     1       2.205  -2.712  -0.634  1.00  0.00    -0.349 OA
HETATM   15  O5  UNL     1       3.057  -0.672   1.813  1.00  0.00    -0.351 OA
HETATM   16  C11 UNL     1       1.890  -0.785   2.586  1.00  0.00     0.172 A 
HETATM   17  C12 UNL     1       2.193   0.378  -0.730  1.00  0.00     0.008 C 
HETATM   18  O6  UNL     1       0.201  -0.985  -2.002  1.00  0.00    -0.223 OA
ENDROOT
BRANCH   1  19
HETATM   19  C13 UNL     1      -2.217   0.916  -1.432  1.00  0.00    -0.041 C 
HETATM   20  C14 UNL     1      -2.309   0.320  -2.632  1.00  0.00    -0.009 C 
HETATM   21  C15 UNL     1      -2.490   2.397  -1.300  1.00  0.00     0.026 C 
ENDBRANCH   1  19
TORSDOF 1
