REMARK  4 active torsions:
REMARK  status: ('A' for Active; 'I' for Inactive)
REMARK    1  A    between atoms: C8_8  and  O2_13 
REMARK    2  A    between atoms: C9_9  and  O1_11 
REMARK    3  A    between atoms: C21_24  and  O4_28 
REMARK    4  A    between atoms: C22_25  and  O3_26 
ROOT
HETATM    1  C1  UNL     1      -0.879   0.411   0.176  1.00  0.00     0.004 A 
HETATM    2  C2  UNL     1      -0.883  -0.960   0.202  1.00  0.00     0.024 A 
HETATM    3  C3  UNL     1       0.341  -1.551   0.188  1.00  0.00    -0.000 A 
HETATM    4  C4  UNL     1       1.514  -0.874   0.157  1.00  0.00     0.007 A 
HETATM    5  C5  UNL     1       1.483   0.470   0.198  1.00  0.00    -0.022 A 
HETATM    6  C6  UNL     1       0.288   1.097   0.177  1.00  0.00    -0.002 A 
HETATM    7  C7  UNL     1       0.262   2.444   0.141  1.00  0.00     0.026 A 
HETATM    8  C8  UNL     1      -0.831   3.225   0.117  1.00  0.00     0.116 A 
HETATM    9  C9  UNL     1      -2.014   2.576   0.131  1.00  0.00     0.116 A 
HETATM   10  C10 UNL     1      -1.958   1.228   0.152  1.00  0.00     0.026 A 
HETATM   11  C13 UNL     1       2.782   1.256   0.253  1.00  0.00     0.059 C 
HETATM   12  C14 UNL     1       4.038   0.433   0.548  1.00  0.00     0.224 C 
HETATM   13  N1  UNL     1       4.018  -0.811  -0.173  1.00  0.00     0.140 N 
HETATM   14  C15 UNL     1       2.851  -1.621   0.100  1.00  0.00     0.276 C 
HETATM   15  C16 UNL     1       4.250  -0.477  -1.564  1.00  0.00     0.251 C 
HETATM   16  C17 UNL     1       5.303   0.648  -1.502  1.00  0.00     0.037 C 
HETATM   17  C18 UNL     1       5.297   1.105  -0.029  1.00  0.00     0.036 C 
HETATM   18  C19 UNL     1       0.409  -2.893   0.229  1.00  0.00     0.002 A 
HETATM   19  C20 UNL     1      -0.680  -3.657   0.258  1.00  0.00     0.026 A 
HETATM   20  C21 UNL     1      -1.906  -3.118   0.262  1.00  0.00     0.116 A 
HETATM   21  C22 UNL     1      -2.004  -1.760   0.237  1.00  0.00     0.116 A 
ENDROOT
BRANCH   8  22
HETATM   22  O2  UNL     1      -0.615   4.587   0.086  1.00  0.00    -0.326 OA
HETATM   23  C12 UNL     1      -1.678   5.508   0.122  1.00  0.00     0.181 C 
ENDBRANCH   8  22
BRANCH   9  24
HETATM   24  O1  UNL     1      -3.191   3.292   0.121  1.00  0.00    -0.326 OA
HETATM   25  C11 UNL     1      -4.441   2.647   0.202  1.00  0.00     0.181 C 
ENDBRANCH   9  24
BRANCH  21  26
HETATM   26  O3  UNL     1      -3.242  -1.156   0.261  1.00  0.00    -0.326 OA
HETATM   27  C23 UNL     1      -4.483  -1.808   0.382  1.00  0.00     0.181 C 
ENDBRANCH  21  26
BRANCH  20  28
HETATM   28  O4  UNL     1      -3.019  -3.925   0.289  1.00  0.00    -0.326 OA
HETATM   29  C24 UNL     1      -2.901  -5.328   0.272  1.00  0.00     0.181 C 
ENDBRANCH  20  28
TORSDOF 4
