REMARK  4 active torsions:
REMARK  status: ('A' for Active; 'I' for Inactive)
REMARK    1  A    between atoms: C14_15  and  O2_20 
REMARK    2  A    between atoms: C15_16  and  O1_18 
REMARK    3  A    between atoms: C20_23  and  O4_28 
REMARK    4  A    between atoms: C21_24  and  O3_26 
ROOT
HETATM    1  C1  UNL     1       1.103   0.938   0.078  1.00  0.00    -0.022 A 
HETATM    2  C2  UNL     1       1.141  -0.410   0.098  1.00  0.00     0.007 A 
HETATM    3  C3  UNL     1       2.481  -1.141   0.096  1.00  0.00     0.276 C 
HETATM    4  N1  UNL     1       3.607  -0.342   0.556  1.00  0.00     0.140 N 
HETATM    5  C4  UNL     1       3.691   0.940  -0.101  1.00  0.00     0.224 C 
HETATM    6  C5  UNL     1       2.394   1.732   0.022  1.00  0.00     0.059 C 
HETATM    7  C6  UNL     1       4.190   0.629  -1.520  1.00  0.00     0.036 C 
HETATM    8  C7  UNL     1       5.124  -0.574  -1.284  1.00  0.00     0.037 C 
HETATM    9  C8  UNL     1       4.869  -0.971   0.184  1.00  0.00     0.251 C 
HETATM   10  C9  UNL     1      -0.024  -1.102   0.107  1.00  0.00    -0.000 A 
HETATM   11  C10 UNL     1      -1.208  -0.459   0.162  1.00  0.00     0.002 A 
HETATM   12  C11 UNL     1      -1.243   0.895   0.175  1.00  0.00     0.002 A 
HETATM   13  C12 UNL     1      -0.086   1.581   0.124  1.00  0.00    -0.002 A 
HETATM   14  C13 UNL     1      -0.162   2.925   0.132  1.00  0.00     0.026 A 
HETATM   15  C14 UNL     1      -1.293   3.655   0.181  1.00  0.00     0.116 A 
HETATM   16  C15 UNL     1      -2.460   2.973   0.237  1.00  0.00     0.116 A 
HETATM   17  C16 UNL     1      -2.376   1.626   0.227  1.00  0.00     0.026 A 
HETATM   18  C19 UNL     1      -2.308  -1.238   0.208  1.00  0.00     0.026 A 
HETATM   19  C20 UNL     1      -2.340  -2.584   0.182  1.00  0.00     0.116 A 
HETATM   20  C21 UNL     1      -1.154  -3.226   0.083  1.00  0.00     0.116 A 
HETATM   21  C22 UNL     1      -0.052  -2.449   0.051  1.00  0.00     0.026 A 
ENDROOT
BRANCH  15  22
HETATM   22  O2  UNL     1      -1.125   5.025   0.180  1.00  0.00    -0.326 OA
HETATM   23  C18 UNL     1      -2.213   5.909   0.287  1.00  0.00     0.181 C 
ENDBRANCH  15  22
BRANCH  16  24
HETATM   24  O1  UNL     1      -3.656   3.651   0.287  1.00  0.00    -0.326 OA
HETATM   25  C17 UNL     1      -4.882   2.956   0.281  1.00  0.00     0.181 C 
ENDBRANCH  16  24
BRANCH  19  26
HETATM   26  O4  UNL     1      -3.594  -3.157   0.248  1.00  0.00    -0.326 OA
HETATM   27  C24 UNL     1      -3.780  -4.551   0.237  1.00  0.00     0.181 C 
ENDBRANCH  19  26
BRANCH  20  28
HETATM   28  O3  UNL     1      -1.105  -4.600   0.041  1.00  0.00    -0.326 OA
HETATM   29  C23 UNL     1       0.129  -5.277   0.072  1.00  0.00     0.181 C 
ENDBRANCH  20  28
TORSDOF 4
