REMARK  16 active torsions:
REMARK  status: ('A' for Active; 'I' for Inactive)
REMARK    1  A    between atoms: C3_3  and  C4_4 
REMARK    2  A    between atoms: C4_4  and  C5_5 
REMARK    3  A    between atoms: C5_5  and  C6_6 
REMARK    4  A    between atoms: C7_7  and  C8_8 
REMARK    5  A    between atoms: C8_8  and  C9_9 
REMARK    6  A    between atoms: C9_9  and  C10_10 
REMARK    7  A    between atoms: C11_11  and  C12_12 
REMARK    8  A    between atoms: C12_12  and  C13_13 
REMARK    9  A    between atoms: C13_13  and  C14_14 
REMARK   10  A    between atoms: C16_16  and  C17_17 
REMARK   11  A    between atoms: C17_17  and  C18_18 
REMARK   12  A    between atoms: C18_18  and  C19_19 
REMARK   13  A    between atoms: C20_20  and  C21_21 
REMARK   14  A    between atoms: C21_21  and  C22_22 
REMARK   15  A    between atoms: C22_22  and  C23_23 
REMARK   16  A    between atoms: C22_22  and  C26_26 
ROOT
HETATM    1  C13 UNL     1       5.881  -0.301  -0.123  1.00  0.00     0.026 C 
ENDROOT
BRANCH   1   2
HETATM    2  C12 UNL     1       4.663   0.627  -0.155  1.00  0.00     0.030 C 
BRANCH   2   3
HETATM    3  C11 UNL     1       4.970   2.105  -0.153  1.00  0.00    -0.034 C 
HETATM    4  C10 UNL     1       4.043   3.072  -0.297  1.00  0.00    -0.048 C 
HETATM    5  C28 UNL     1       4.425   4.533  -0.249  1.00  0.00     0.026 C 
BRANCH   4   6
HETATM    6  C9  UNL     1       2.568   2.784  -0.508  1.00  0.00     0.026 C 
BRANCH   6   7
HETATM    7  C8  UNL     1       1.681   3.221   0.669  1.00  0.00     0.030 C 
BRANCH   7   8
HETATM    8  C7  UNL     1       0.304   2.614   0.536  1.00  0.00    -0.034 C 
HETATM    9  C6  UNL     1      -0.701   3.044  -0.248  1.00  0.00    -0.048 C 
HETATM   10  C29 UNL     1      -0.632   4.293  -1.093  1.00  0.00     0.026 C 
BRANCH   9  11
HETATM   11  C5  UNL     1      -1.988   2.248  -0.356  1.00  0.00     0.026 C 
BRANCH  11  12
HETATM   12  C4  UNL     1      -3.163   2.889   0.399  1.00  0.00     0.030 C 
BRANCH  12  13
HETATM   13  C3  UNL     1      -4.397   2.021   0.313  1.00  0.00    -0.034 C 
HETATM   14  C2  UNL     1      -5.658   2.406   0.042  1.00  0.00    -0.048 C 
HETATM   15  C1  UNL     1      -6.777   1.392  -0.042  1.00  0.00     0.026 C 
HETATM   16  C30 UNL     1      -6.096   3.830  -0.206  1.00  0.00     0.026 C 
ENDBRANCH  12  13
ENDBRANCH  11  12
ENDBRANCH   9  11
ENDBRANCH   7   8
ENDBRANCH   6   7
ENDBRANCH   4   6
ENDBRANCH   2   3
ENDBRANCH   1   2
BRANCH   1  17
HETATM   17  C14 UNL     1       5.690  -1.812  -0.180  1.00  0.00    -0.048 C 
HETATM   18  C15 UNL     1       7.012  -2.554  -0.104  1.00  0.00     0.026 C 
HETATM   19  C16 UNL     1       4.549  -2.521  -0.307  1.00  0.00    -0.034 C 
BRANCH  19  20
HETATM   20  C17 UNL     1       3.131  -2.022  -0.412  1.00  0.00     0.030 C 
BRANCH  20  21
HETATM   21  C18 UNL     1       2.047  -3.055  -0.056  1.00  0.00     0.026 C 
BRANCH  21  22
HETATM   22  C19 UNL     1       0.635  -2.489  -0.133  1.00  0.00    -0.048 C 
HETATM   23  C20 UNL     1      -0.366  -3.207  -0.677  1.00  0.00    -0.034 C 
HETATM   24  C27 UNL     1       0.454  -1.113   0.467  1.00  0.00     0.026 C 
BRANCH  23  25
HETATM   25  C21 UNL     1      -1.815  -2.800  -0.813  1.00  0.00     0.032 C 
BRANCH  25  26
HETATM   26  C22 UNL     1      -2.781  -3.851  -0.231  1.00  0.00     0.056 C 
BRANCH  26  27
HETATM   27  C23 UNL     1      -2.413  -4.273   1.183  1.00  0.00    -0.041 C 
HETATM   28  C24 UNL     1      -2.262  -5.571   1.499  1.00  0.00    -0.009 C 
HETATM   29  C25 UNL     1      -2.248  -3.204   2.237  1.00  0.00     0.026 C 
ENDBRANCH  26  27
BRANCH  26  30
HETATM   30  C26 UNL     1      -4.232  -3.362  -0.260  1.00  0.00     0.187 C 
HETATM   31  O1  UNL     1      -4.630  -3.082  -1.587  1.00  0.00    -0.220 OA
ENDBRANCH  26  30
ENDBRANCH  25  26
ENDBRANCH  23  25
ENDBRANCH  21  22
ENDBRANCH  20  21
ENDBRANCH  19  20
ENDBRANCH   1  17
TORSDOF 16
