REMARK  12 active torsions:
REMARK  status: ('A' for Active; 'I' for Inactive)
REMARK    1  A    between atoms: C4_4  and  C52_74 
REMARK    2  A    between atoms: C20_21  and  O2_24 
REMARK    3  A    between atoms: O2_24  and  C23_25 
REMARK    4  A    between atoms: C24_27  and  C46_66 
REMARK    5  A    between atoms: C26_29  and  O10_43 
REMARK    6  A    between atoms: C27_30  and  O4_31 
REMARK    7  A    between atoms: O4_31  and  C28_32 
REMARK    8  A    between atoms: C32_36  and  C33_38 
REMARK    9  A    between atoms: O10_43  and  C34_44 
REMARK   10  A    between atoms: C35_46  and  C45_63 
REMARK   11  A    between atoms: C37_48  and  O13_51 
REMARK   12  A    between atoms: O13_51  and  C39_52 
ROOT
HETATM    1  C23 UNL     1       1.487   0.658   1.319  1.00  0.00     0.267 C 
HETATM    2  O3  UNL     1       2.422   0.300   2.327  1.00  0.00    -0.318 OA
HETATM    3  C24 UNL     1       1.821  -0.013   3.570  1.00  0.00     0.237 C 
HETATM    4  C25 UNL     1       0.910  -1.236   3.463  1.00  0.00     0.219 C 
HETATM    5  C26 UNL     1       0.595  -1.588   2.012  1.00  0.00     0.183 C 
HETATM    6  C27 UNL     1       0.275  -0.263   1.303  1.00  0.00     0.204 C 
HETATM    7  O20 UNL     1      -0.283  -1.014   4.190  1.00  0.00    -0.217 OA
ENDROOT
BRANCH   1   8
HETATM    8  O2  UNL     1       2.206   0.530   0.105  1.00  0.00    -0.332 OA
BRANCH   8   9
HETATM    9  C20 UNL     1       1.934   1.504  -0.879  1.00  0.00     0.118 C 
HETATM   10  C19 UNL     1       2.341   0.964  -2.270  1.00  0.00     0.025 C 
HETATM   11  C16 UNL     1       3.895   0.961  -2.485  1.00  0.00     0.002 C 
HETATM   12  C47 UNL     1       1.680  -0.416  -2.497  1.00  0.00     0.002 C 
HETATM   13  C48 UNL     1       1.661   1.867  -3.342  1.00  0.00     0.002 C 
HETATM   14  C15 UNL     1       4.760   1.786  -1.480  1.00  0.00     0.001 C 
HETATM   15  C17 UNL     1       4.580  -0.377  -2.827  1.00  0.00     0.000 C 
HETATM   16  C12 UNL     1       6.172   1.995  -2.126  1.00  0.00     0.005 C 
HETATM   17  C22 UNL     1       3.975   3.101  -1.265  1.00  0.00     0.003 C 
HETATM   18  C49 UNL     1       4.929   1.178  -0.073  1.00  0.00     0.000 C 
HETATM   19  C11 UNL     1       6.948   0.703  -2.551  1.00  0.00     0.004 C 
HETATM   20  C13 UNL     1       7.066   2.991  -1.360  1.00  0.00     0.025 C 
HETATM   21  C8  UNL     1       8.279   1.108  -3.328  1.00  0.00     0.017 C 
HETATM   22  C18 UNL     1       5.993  -0.166  -3.413  1.00  0.00     0.000 C 
HETATM   23  C50 UNL     1       7.305  -0.171  -1.319  1.00  0.00     0.000 C 
HETATM   24  C7  UNL     1       9.140   1.960  -2.400  1.00  0.00    -0.049 C 
HETATM   25  C9  UNL     1       9.072  -0.128  -3.835  1.00  0.00     0.037 C 
HETATM   26  C51 UNL     1       7.969   1.991  -4.569  1.00  0.00     0.004 C 
HETATM   27  C5  UNL     1      10.656   2.051  -2.557  1.00  0.00     0.024 C 
HETATM   28  C14 UNL     1       8.546   2.823  -1.556  1.00  0.00    -0.035 C 
HETATM   29  C4  UNL     1      11.354   0.719  -2.906  1.00  0.00     0.069 C 
HETATM   30  C6  UNL     1      10.996   3.233  -3.489  1.00  0.00     0.011 C 
HETATM   31  C3  UNL     1      12.830   0.948  -3.335  1.00  0.00     0.070 C 
HETATM   32  C10 UNL     1      10.584   0.015  -4.038  1.00  0.00     0.155 C 
HETATM   33  C2  UNL     1      13.110   2.164  -4.196  1.00  0.00     0.150 C 
HETATM   34  C1  UNL     1      12.491   3.482  -3.745  1.00  0.00     0.052 C 
HETATM   35  O24 UNL     1      13.874   2.094  -5.133  1.00  0.00    -0.296 OA
HETATM   36  C53 UNL     1      12.657   4.545  -4.853  1.00  0.00     0.007 C 
HETATM   37  C54 UNL     1      13.213   3.984  -2.480  1.00  0.00     0.007 C 
HETATM   38  O1  UNL     1      10.836   0.654  -5.265  1.00  0.00    -0.223 OA
HETATM   39  C21 UNL     1       2.591   2.871  -0.610  1.00  0.00     0.030 C 
BRANCH  29  40
HETATM   40  C52 UNL     1      11.486  -0.191  -1.660  1.00  0.00     0.185 C 
HETATM   41  O23 UNL     1      10.261  -0.407  -1.004  1.00  0.00    -0.221 OA
ENDBRANCH  29  40
ENDBRANCH   8   9
ENDBRANCH   1   8
BRANCH   6  42
HETATM   42  O4  UNL     1      -0.791   0.334   2.002  1.00  0.00    -0.324 OA
BRANCH  42  43
HETATM   43  C28 UNL     1      -1.564   1.296   1.315  1.00  0.00     0.270 C 
HETATM   44  C29 UNL     1      -3.031   1.091   1.619  1.00  0.00     0.241 C 
HETATM   45  C30 UNL     1      -3.362   1.442   3.054  1.00  0.00     0.220 C 
HETATM   46  O9  UNL     1      -3.810   1.875   0.741  1.00  0.00    -0.215 OA
HETATM   47  C31 UNL     1      -2.900   2.859   3.336  1.00  0.00     0.215 C 
HETATM   48  O8  UNL     1      -2.712   0.538   3.918  1.00  0.00    -0.218 OA
HETATM   49  C32 UNL     1      -1.468   3.131   2.895  1.00  0.00     0.184 C 
HETATM   50  O7  UNL     1      -3.749   3.756   2.658  1.00  0.00    -0.218 OA
HETATM   51  O5  UNL     1      -1.125   2.599   1.639  1.00  0.00    -0.326 OA
BRANCH  49  52
HETATM   52  C33 UNL     1      -0.430   2.833   3.966  1.00  0.00     0.214 C 
HETATM   53  O6  UNL     1      -0.591   3.721   5.056  1.00  0.00    -0.218 OA
ENDBRANCH  49  52
ENDBRANCH  42  43
ENDBRANCH   6  42
BRANCH   3  54
HETATM   54  C46 UNL     1       2.845  -0.155   4.697  1.00  0.00     0.217 C 
HETATM   55  O21 UNL     1       3.808   0.779   4.622  1.00  0.00    -0.646 OA
HETATM   56  O22 UNL     1       2.887  -1.025   5.534  1.00  0.00    -0.646 OA
ENDBRANCH   3  54
BRANCH   5  57
HETATM   57  O10 UNL     1       1.736  -2.230   1.486  1.00  0.00    -0.326 OA
BRANCH  57  58
HETATM   58  C34 UNL     1       1.516  -3.155   0.448  1.00  0.00     0.270 C 
HETATM   59  O11 UNL     1       0.958  -4.338   0.977  1.00  0.00    -0.326 OA
HETATM   60  C35 UNL     1       1.827  -5.232   1.627  1.00  0.00     0.184 C 
HETATM   61  C36 UNL     1       3.111  -5.504   0.846  1.00  0.00     0.211 C 
HETATM   62  C37 UNL     1       3.836  -4.233   0.427  1.00  0.00     0.186 C 
HETATM   63  O18 UNL     1       3.980  -6.318   1.597  1.00  0.00    -0.218 OA
HETATM   64  C38 UNL     1       2.797  -3.407  -0.325  1.00  0.00     0.238 C 
HETATM   65  O12 UNL     1       2.477  -4.068  -1.530  1.00  0.00    -0.215 OA
BRANCH  60  66
HETATM   66  C45 UNL     1       1.989  -4.896   3.105  1.00  0.00     0.214 C 
HETATM   67  O19 UNL     1       2.530  -6.012   3.789  1.00  0.00    -0.218 OA
ENDBRANCH  60  66
BRANCH  62  68
HETATM   68  O13 UNL     1       4.346  -3.628   1.585  1.00  0.00    -0.326 OA
BRANCH  68  69
HETATM   69  C39 UNL     1       5.039  -2.415   1.418  1.00  0.00     0.270 C 
HETATM   70  O14 UNL     1       6.323  -2.668   0.898  1.00  0.00    -0.329 OA
HETATM   71  C40 UNL     1       7.265  -3.125   1.826  1.00  0.00     0.151 C 
HETATM   72  C41 UNL     1       7.414  -2.123   2.960  1.00  0.00     0.212 C 
HETATM   73  C44 UNL     1       8.585  -3.321   1.077  1.00  0.00     0.035 C 
HETATM   74  C42 UNL     1       6.101  -2.005   3.699  1.00  0.00     0.220 C 
HETATM   75  O17 UNL     1       8.393  -2.532   3.883  1.00  0.00    -0.218 OA
HETATM   76  C43 UNL     1       5.024  -1.633   2.712  1.00  0.00     0.241 C 
HETATM   77  O16 UNL     1       6.208  -0.974   4.656  1.00  0.00    -0.218 OA
HETATM   78  O15 UNL     1       5.182  -0.263   2.440  1.00  0.00    -0.215 OA
ENDBRANCH  68  69
ENDBRANCH  62  68
ENDBRANCH  57  58
ENDBRANCH   5  57
TORSDOF 12
