REMARK  9 active torsions:
REMARK  status: ('A' for Active; 'I' for Inactive)
REMARK    1  A    between atoms: C3_3  and  O4_10 
REMARK    2  A    between atoms: C4_5  and  C6_8 
REMARK    3  A    between atoms: O4_10  and  P1_11 
REMARK    4  A    between atoms: P1_11  and  O7_14 
REMARK    5  A    between atoms: O7_14  and  P2_15 
REMARK    6  A    between atoms: P2_15  and  O10_18 
REMARK    7  A    between atoms: O10_18  and  C7_19 
REMARK    8  A    between atoms: C7_19  and  C8_20 
REMARK    9  A    between atoms: C11_23  and  N1_25 
ROOT
HETATM    1  P2  UNL     1      -0.566  -0.761   1.530  1.00  0.00     0.418 P 
HETATM    2  O8  UNL     1      -0.300  -0.198   3.017  1.00  0.00    -0.624 OA
HETATM    3  O9  UNL     1      -1.151  -2.114   1.755  1.00  0.00    -0.624 OA
ENDROOT
BRANCH   1   4
HETATM    4  O7  UNL     1      -1.534   0.259   0.753  1.00  0.00    -0.180 OA
BRANCH   4   5
HETATM    5  P1  UNL     1      -2.640  -0.368  -0.236  1.00  0.00     0.420 P 
HETATM    6  O5  UNL     1      -3.316  -1.723   0.315  1.00  0.00    -0.624 OA
HETATM    7  O6  UNL     1      -2.052  -0.624  -1.583  1.00  0.00    -0.624 OA
BRANCH   5   8
HETATM    8  O4  UNL     1      -3.820   0.752  -0.297  1.00  0.00    -0.242 OA
BRANCH   8   9
HETATM    9  C3  UNL     1      -3.677   1.883  -1.129  1.00  0.00     0.279 C 
HETATM   10  C2  UNL     1      -4.711   2.905  -0.719  1.00  0.00     0.241 C 
HETATM   11  C1  UNL     1      -4.611   4.091  -1.651  1.00  0.00     0.220 C 
HETATM   12  O16 UNL     1      -4.454   3.337   0.594  1.00  0.00    -0.215 OA
HETATM   13  C5  UNL     1      -4.797   3.602  -3.073  1.00  0.00     0.215 C 
HETATM   14  O17 UNL     1      -5.610   5.027  -1.337  1.00  0.00    -0.218 OA
HETATM   15  C4  UNL     1      -3.802   2.489  -3.386  1.00  0.00     0.184 C 
HETATM   16  O2  UNL     1      -4.611   4.702  -3.930  1.00  0.00    -0.218 OA
HETATM   17  O1  UNL     1      -3.940   1.452  -2.448  1.00  0.00    -0.326 OA
BRANCH  15  18
HETATM   18  C6  UNL     1      -4.026   1.915  -4.777  1.00  0.00     0.214 C 
HETATM   19  O3  UNL     1      -3.011   0.977  -5.079  1.00  0.00    -0.218 OA
ENDBRANCH  15  18
ENDBRANCH   8   9
ENDBRANCH   5   8
ENDBRANCH   4   5
ENDBRANCH   1   4
BRANCH   1  20
HETATM   20  O10 UNL     1       0.846  -0.835   0.739  1.00  0.00    -0.268 OA
BRANCH  20  21
HETATM   21  C7  UNL     1       1.358  -2.077   0.323  1.00  0.00     0.187 C 
BRANCH  21  22
HETATM   22  C8  UNL     1       2.726  -1.865  -0.320  1.00  0.00     0.181 C 
HETATM   23  C9  UNL     1       3.439  -3.176  -0.607  1.00  0.00     0.216 C 
HETATM   24  C10 UNL     1       4.262  -3.377   0.647  1.00  0.00     0.234 C 
HETATM   25  O15 UNL     1       4.325  -3.020  -1.690  1.00  0.00    -0.218 OA
HETATM   26  C11 UNL     1       4.609  -1.938   1.001  1.00  0.00     0.242 C 
HETATM   27  O14 UNL     1       5.402  -4.142   0.349  1.00  0.00    -0.216 OA
HETATM   28  O11 UNL     1       3.538  -1.132   0.558  1.00  0.00    -0.331 OA
BRANCH  26  29
HETATM   29  N1  UNL     1       4.944  -1.675   2.408  1.00  0.00    -0.254 N 
HETATM   30  C12 UNL     1       6.093  -1.051   2.749  1.00  0.00     0.087 A 
HETATM   31  C13 UNL     1       6.404  -0.745   4.019  1.00  0.00     0.082 A 
HETATM   32  C14 UNL     1       5.564  -1.042   5.041  1.00  0.00     0.285 A 
HETATM   33  N2  UNL     1       4.397  -1.661   4.687  1.00  0.00    -0.153 NA
HETATM   34  O13 UNL     1       5.795  -0.790   6.200  1.00  0.00    -0.265 OA
HETATM   35  C15 UNL     1       4.053  -1.996   3.406  1.00  0.00     0.354 A 
HETATM   36  O12 UNL     1       2.998  -2.548   3.214  1.00  0.00    -0.244 OA
ENDBRANCH  26  29
ENDBRANCH  21  22
ENDBRANCH  20  21
ENDBRANCH   1  20
TORSDOF 9
