REMARK  2 active torsions:
REMARK  status: ('A' for Active; 'I' for Inactive)
REMARK    1  A    between atoms: C2_2  and  C17_22 
REMARK    2  A    between atoms: C12_13  and  C14_16 
ROOT
HETATM    1  C1  UNL     1      -2.659  -1.519  -0.427  1.00  0.00     0.134 A 
HETATM    2  C2  UNL     1      -1.459  -2.146  -0.501  1.00  0.00     0.082 A 
HETATM    3  C3  UNL     1      -0.358  -1.382  -0.347  1.00  0.00     0.103 A 
HETATM    4  C4  UNL     1      -0.458  -0.063  -0.149  1.00  0.00     0.038 A 
HETATM    5  C5  UNL     1      -1.630   0.579  -0.097  1.00  0.00     0.128 A 
HETATM    6  C6  UNL     1      -2.736  -0.180  -0.228  1.00  0.00     0.029 A 
HETATM    7  C7  UNL     1      -4.107   0.470  -0.161  1.00  0.00     0.035 C 
HETATM    8  O1  UNL     1      -1.659   1.930   0.054  1.00  0.00    -0.191 OA
HETATM    9  C8  UNL     1       0.915   0.533  -0.101  1.00  0.00     0.115 C 
HETATM   10  C9  UNL     1       1.573  -0.824  -0.087  1.00  0.00     0.090 C 
HETATM   11  C10 UNL     1       2.853  -1.009   0.277  1.00  0.00     0.059 C 
HETATM   12  C11 UNL     1       3.602  -0.030   0.848  1.00  0.00     0.188 C 
HETATM   13  C12 UNL     1       2.935   1.295   1.253  1.00  0.00     0.177 C 
HETATM   14  C13 UNL     1       1.410   1.266   1.126  1.00  0.00     0.173 C 
HETATM   15  O2  UNL     1       0.681   1.713   1.983  1.00  0.00    -0.294 OA
HETATM   16  O4  UNL     1       4.753  -0.229   1.175  1.00  0.00    -0.290 OA
HETATM   17  O5  UNL     1       0.816  -1.768  -0.332  1.00  0.00    -0.311 OA
HETATM   18  C16 UNL     1       1.196   1.297  -1.402  1.00  0.00     0.018 C 
HETATM   19  O7  UNL     1      -3.833  -2.194  -0.575  1.00  0.00    -0.190 OA
ENDROOT
BRANCH   2  20
HETATM   20  C17 UNL     1      -1.317  -3.490  -0.726  1.00  0.00     0.177 C 
HETATM   21  O6  UNL     1      -0.229  -4.015  -0.827  1.00  0.00    -0.291 OA
HETATM   22  C18 UNL     1      -2.477  -4.464  -0.889  1.00  0.00     0.077 C 
ENDBRANCH   2  20
BRANCH  13  23
HETATM   23  C14 UNL     1       3.568   2.537   0.627  1.00  0.00     0.165 C 
HETATM   24  C15 UNL     1       3.422   3.854   1.365  1.00  0.00     0.073 C 
HETATM   25  O3  UNL     1       4.168   2.458  -0.420  1.00  0.00    -0.295 OA
ENDBRANCH  13  23
TORSDOF 2
