REMARK  1 active torsions:
REMARK  status: ('A' for Active; 'I' for Inactive)
REMARK    1  A    between atoms: C7_8  and  C10_11 
ROOT
HETATM    1  C1  UNL     1      -0.597   1.774   0.418  1.00  0.00     0.034 C 
HETATM    2  C2  UNL     1      -0.871   0.269   0.427  1.00  0.00     0.009 C 
HETATM    3  C3  UNL     1       0.206  -0.421   1.285  1.00  0.00     0.033 C 
HETATM    4  C4  UNL     1       1.591   0.289   1.296  1.00  0.00     0.132 C 
HETATM    5  C5  UNL     1       1.921   1.233   0.098  1.00  0.00     0.082 C 
HETATM    6  C6  UNL     1       0.685   2.042  -0.370  1.00  0.00     0.157 C 
HETATM    7  O1  UNL     1       0.903   3.436  -0.336  1.00  0.00    -0.223 OA
HETATM    8  C7  UNL     1       2.506   0.238  -0.956  1.00  0.00     0.159 C 
HETATM    9  C8  UNL     1       3.267  -0.805  -0.124  1.00  0.00     0.036 C 
HETATM   10  C9  UNL     1       2.793  -0.662   1.329  1.00  0.00     0.033 C 
HETATM   11  O3  UNL     1       1.455  -0.422  -1.609  1.00  0.00    -0.223 OA
HETATM   12  C12 UNL     1       3.054   2.225   0.491  1.00  0.00     0.008 C 
HETATM   13  O4  UNL     1       1.632   1.037   2.491  1.00  0.00    -0.226 OA
HETATM   14  C13 UNL     1       0.161  -1.928   0.991  1.00  0.00     0.028 C 
HETATM   15  C14 UNL     1      -1.248  -2.454   0.906  1.00  0.00    -0.035 C 
HETATM   16  C15 UNL     1      -2.358  -1.702   0.813  1.00  0.00    -0.046 C 
HETATM   17  C16 UNL     1      -2.322  -0.178   0.766  1.00  0.00     0.015 C 
HETATM   18  C17 UNL     1      -3.273   0.304  -0.364  1.00  0.00     0.006 C 
HETATM   19  C18 UNL     1      -4.658  -0.360  -0.373  1.00  0.00     0.034 C 
HETATM   20  C19 UNL     1      -4.507  -1.875  -0.428  1.00  0.00     0.156 C 
HETATM   21  C20 UNL     1      -3.720  -2.361   0.781  1.00  0.00     0.055 C 
HETATM   22  O5  UNL     1      -5.778  -2.481  -0.440  1.00  0.00    -0.223 OA
HETATM   23  C21 UNL     1      -2.794   0.394   2.119  1.00  0.00     0.004 C 
ENDROOT
BRANCH   8  24
HETATM   24  C10 UNL     1       3.355   0.798  -2.099  1.00  0.00     0.180 C 
HETATM   25  C11 UNL     1       3.897  -0.262  -3.061  1.00  0.00     0.038 C 
HETATM   26  O2  UNL     1       2.546   1.671  -2.850  1.00  0.00    -0.221 OA
ENDBRANCH   8  24
TORSDOF 1
