REMARK  8 active torsions:
REMARK  status: ('A' for Active; 'I' for Inactive)
REMARK    1  A    between atoms: C1_1  and  C7_7 
REMARK    2  A    between atoms: C7_7  and  O1_8 
REMARK    3  A    between atoms: O1_8  and  C8_9 
REMARK    4  A    between atoms: C8_9  and  C9_10 
REMARK    5  A    between atoms: C10_11  and  O5_21 
REMARK    6  A    between atoms: C11_12  and  O3_17 
REMARK    7  A    between atoms: O3_17  and  C15_18 
REMARK    8  A    between atoms: O5_21  and  C17_22 
ROOT
HETATM    1  C9  UNL     1       0.922   0.197   1.136  1.00  0.00     0.214 C 
HETATM    2  C10 UNL     1      -0.363  -0.498   1.615  1.00  0.00     0.189 C 
HETATM    3  C11 UNL     1      -0.527  -1.913   1.049  1.00  0.00     0.176 C 
HETATM    4  C12 UNL     1       0.771  -2.676   1.190  1.00  0.00     0.004 C 
HETATM    5  C13 UNL     1       1.964  -2.097   1.381  1.00  0.00     0.007 C 
HETATM    6  C14 UNL     1       2.159  -0.614   1.520  1.00  0.00     0.207 C 
HETATM    7  O2  UNL     1       2.486  -0.342   2.872  1.00  0.00    -0.216 OA
HETATM    8  O7  UNL     1       1.021   1.418   1.828  1.00  0.00    -0.218 OA
ENDROOT
BRANCH   1   9
HETATM    9  C8  UNL     1       0.945   0.540  -0.359  1.00  0.00     0.188 C 
BRANCH   9  10
HETATM   10  O1  UNL     1      -0.245   1.185  -0.707  1.00  0.00    -0.296 OA
BRANCH  10  11
HETATM   11  C7  UNL     1      -0.489   1.863  -1.877  1.00  0.00     0.296 C 
HETATM   12  O8  UNL     1      -1.555   2.452  -1.878  1.00  0.00    -0.259 OA
BRANCH  11  13
HETATM   13  C1  UNL     1       0.249   1.983  -3.028  1.00  0.00     0.063 A 
HETATM   14  C2  UNL     1      -0.214   2.770  -4.026  1.00  0.00     0.005 A 
HETATM   15  C3  UNL     1       0.454   2.943  -5.178  1.00  0.00     0.000 A 
HETATM   16  C4  UNL     1       1.623   2.320  -5.379  1.00  0.00     0.000 A 
HETATM   17  C5  UNL     1       2.101   1.525  -4.413  1.00  0.00     0.000 A 
HETATM   18  C6  UNL     1       1.423   1.363  -3.265  1.00  0.00     0.005 A 
ENDBRANCH  11  13
ENDBRANCH  10  11
ENDBRANCH   9  10
ENDBRANCH   1   9
BRANCH   2  19
HETATM   19  O5  UNL     1      -0.300  -0.553   3.017  1.00  0.00    -0.299 OA
BRANCH  19  20
HETATM   20  C17 UNL     1      -1.455  -0.585   3.733  1.00  0.00     0.273 C 
HETATM   21  C18 UNL     1      -1.149  -0.525   5.215  1.00  0.00     0.106 C 
HETATM   22  O6  UNL     1      -2.566  -0.645   3.261  1.00  0.00    -0.264 OA
ENDBRANCH  19  20
ENDBRANCH   2  19
BRANCH   3  23
HETATM   23  O3  UNL     1      -0.868  -1.894  -0.317  1.00  0.00    -0.297 OA
BRANCH  23  24
HETATM   24  C15 UNL     1      -2.139  -1.875  -0.808  1.00  0.00     0.273 C 
HETATM   25  O4  UNL     1      -2.354  -1.834  -2.001  1.00  0.00    -0.264 OA
HETATM   26  C16 UNL     1      -3.270  -1.932   0.199  1.00  0.00     0.106 C 
ENDBRANCH  23  24
ENDBRANCH   3  23
TORSDOF 8
