REMARK  0 active torsions:
REMARK  status: ('A' for Active; 'I' for Inactive)
ROOT
HETATM    1  C1  UNL     1       0.711   2.499   0.112  1.00  0.00     0.109 C 
HETATM    2  N1  UNL     1       1.832   1.865  -0.281  1.00  0.00    -0.189 NA
HETATM    3  C2  UNL     1       2.330   0.689  -0.765  1.00  0.00     0.369 C 
HETATM    4  N2  UNL     1       1.883  -0.594  -0.906  1.00  0.00    -0.190 NA
HETATM    5  C3  UNL     1       0.928  -1.477  -0.556  1.00  0.00     0.104 C 
HETATM    6  C4  UNL     1      -0.130  -1.617   0.264  1.00  0.00     0.057 C 
HETATM    7  C5  UNL     1      -0.478  -0.637   1.131  1.00  0.00     0.294 C 
HETATM    8  N3  UNL     1      -1.838  -0.399   1.106  1.00  0.00    -0.103 NA
HETATM    9  N4  UNL     1      -2.182   0.789   0.547  1.00  0.00    -0.102 NA
HETATM   10  C6  UNL     1      -1.270   1.251  -0.381  1.00  0.00     0.298 C 
HETATM   11  C7  UNL     1      -0.618   2.319   0.129  1.00  0.00     0.085 C 
HETATM   12  O1  UNL     1      -0.898   0.559  -1.300  1.00  0.00    -0.264 OA
HETATM   13  O2  UNL     1       0.285   0.168   1.612  1.00  0.00    -0.264 OA
HETATM   14  C8  UNL     1      -1.078  -2.777   0.018  1.00  0.00     0.038 C 
HETATM   15  O3  UNL     1       3.459   0.816  -1.171  1.00  0.00    -0.242 OA
ENDROOT
TORSDOF 0
