REMARK  1 active torsions:
REMARK  status: ('A' for Active; 'I' for Inactive)
REMARK    1  A    between atoms: C9_9  and  C11_11 
ROOT
HETATM    1  C1  UNL     1      -3.036  -0.248  -0.784  1.00  0.00     0.005 C 
HETATM    2  C2  UNL     1      -1.853  -0.838   0.024  1.00  0.00     0.003 C 
HETATM    3  C3  UNL     1      -0.495  -0.296  -0.550  1.00  0.00     0.015 C 
HETATM    4  C4  UNL     1      -0.551   1.225  -0.661  1.00  0.00    -0.049 C 
HETATM    5  C5  UNL     1      -1.705   1.901  -0.788  1.00  0.00    -0.034 C 
HETATM    6  C6  UNL     1      -3.073   1.282  -0.766  1.00  0.00     0.025 C 
HETATM    7  C7  UNL     1       0.738   2.006  -0.491  1.00  0.00     0.022 C 
HETATM    8  C8  UNL     1       1.998   1.223  -0.869  1.00  0.00     0.008 C 
HETATM    9  C9  UNL     1       2.076  -0.131  -0.138  1.00  0.00     0.019 C 
HETATM   10  C10 UNL     1       0.704  -0.622   0.373  1.00  0.00     0.008 C 
HETATM   11  C14 UNL     1      -0.223  -0.892  -1.954  1.00  0.00     0.004 C 
HETATM   12  C15 UNL     1      -1.972  -2.380  -0.062  1.00  0.00     0.000 C 
HETATM   13  C16 UNL     1      -2.048  -0.463   1.514  1.00  0.00     0.000 C 
ENDROOT
BRANCH   9  14
HETATM   14  C11 UNL     1       3.099  -0.137   0.991  1.00  0.00    -0.044 C 
HETATM   15  C12 UNL     1       4.036  -1.097   1.071  1.00  0.00    -0.009 C 
HETATM   16  C13 UNL     1       3.019   0.945   2.046  1.00  0.00     0.026 C 
ENDBRANCH   9  14
TORSDOF 1
