REMARK  1 active torsions:
REMARK  status: ('A' for Active; 'I' for Inactive)
REMARK    1  A    between atoms: C9_9  and  C11_11 
ROOT
HETATM    1  C1  UNL     1      -3.290   1.718  -0.309  1.00  0.00     0.025 C 
HETATM    2  C2  UNL     1      -3.232   0.255  -0.757  1.00  0.00     0.005 C 
HETATM    3  C3  UNL     1      -2.400  -0.560   0.246  1.00  0.00     0.004 C 
HETATM    4  C4  UNL     1      -0.929  -0.049   0.364  1.00  0.00     0.015 C 
HETATM    5  C5  UNL     1      -0.835   1.458   0.147  1.00  0.00    -0.049 C 
HETATM    6  C6  UNL     1      -1.894   2.237  -0.130  1.00  0.00    -0.035 C 
HETATM    7  C7  UNL     1       0.557   2.047   0.147  1.00  0.00     0.022 C 
HETATM    8  C8  UNL     1       1.330   1.431  -1.026  1.00  0.00     0.007 C 
HETATM    9  C9  UNL     1       1.408  -0.106  -0.935  1.00  0.00     0.029 C 
HETATM   10  C10 UNL     1      -0.000  -0.709  -0.683  1.00  0.00     0.006 C 
HETATM   11  C14 UNL     1      -0.479  -0.397   1.799  1.00  0.00     0.004 C 
HETATM   12  C15 UNL     1      -2.551  -2.063  -0.059  1.00  0.00     0.000 C 
ENDROOT
BRANCH   9  13
HETATM   13  C11 UNL     1       2.656  -0.666  -0.194  1.00  0.00     0.127 C 
HETATM   14  O1  UNL     1       3.713  -0.675  -1.131  1.00  0.00    -0.226 OA
HETATM   15  C12 UNL     1       2.489  -2.122   0.255  1.00  0.00     0.033 C 
HETATM   16  C13 UNL     1       3.202   0.156   0.981  1.00  0.00     0.033 C 
ENDBRANCH   9  13
TORSDOF 1
