REMARK  4 active torsions:
REMARK  status: ('A' for Active; 'I' for Inactive)
REMARK    1  A    between atoms: C13_15  and  C20_23 
REMARK    2  A    between atoms: C14_16  and  C16_18 
REMARK    3  A    between atoms: C16_18  and  C17_19 
REMARK    4  A    between atoms: C20_23  and  O3_25 
ROOT
HETATM    1  C1  UNL     1      -5.836  -1.581   0.366  1.00  0.00     0.002 A 
HETATM    2  C2  UNL     1      -4.581  -2.064   0.390  1.00  0.00     0.019 A 
HETATM    3  C3  UNL     1      -3.577  -1.191   0.251  1.00  0.00     0.081 A 
HETATM    4  C4  UNL     1      -3.807   0.120   0.092  1.00  0.00     0.015 A 
HETATM    5  C5  UNL     1      -5.054   0.606   0.066  1.00  0.00     0.001 A 
HETATM    6  C6  UNL     1      -6.068  -0.265   0.207  1.00  0.00     0.000 A 
HETATM    7  C7  UNL     1      -2.603   0.694  -0.023  1.00  0.00    -0.003 A 
HETATM    8  C8  UNL     1      -1.692  -0.287   0.073  1.00  0.00     0.075 A 
HETATM    9  N1  UNL     1      -2.323  -1.380   0.233  1.00  0.00    -0.248 NA
HETATM   10  C9  UNL     1      -0.220  -0.011  -0.038  1.00  0.00     0.122 C 
HETATM   11  N2  UNL     1       0.073   1.344   0.469  1.00  0.00    -0.343 N 
HETATM   12  C10 UNL     1      -0.953   2.418   0.604  1.00  0.00     0.106 C 
HETATM   13  C11 UNL     1      -2.221   2.128  -0.218  1.00  0.00     0.052 C 
HETATM   14  C12 UNL     1       1.268   1.620   0.819  1.00  0.00     0.073 C 
HETATM   15  C13 UNL     1       2.349   0.802   0.820  1.00  0.00     0.062 C 
HETATM   16  C14 UNL     1       2.122  -0.655   0.458  1.00  0.00     0.056 C 
HETATM   17  C15 UNL     1       0.645  -1.035   0.684  1.00  0.00     0.037 C 
ENDROOT
BRANCH  16  18
HETATM   18  C16 UNL     1       2.587  -1.157  -0.909  1.00  0.00     0.020 C 
HETATM   19  C18 UNL     1       2.712  -0.435  -2.042  1.00  0.00    -0.026 C 
HETATM   20  C19 UNL     1       2.455   1.023  -2.306  1.00  0.00     0.030 C 
BRANCH  18  21
HETATM   21  C17 UNL     1       2.878  -2.487  -0.996  1.00  0.00     0.230 C 
HETATM   22  O1  UNL     1       2.809  -3.252  -0.063  1.00  0.00    -0.283 OA
ENDBRANCH  18  21
ENDBRANCH  16  18
BRANCH  15  23
HETATM   23  C20 UNL     1       3.561   1.347   1.174  1.00  0.00     0.294 C 
HETATM   24  O2  UNL     1       3.555   2.534   1.444  1.00  0.00    -0.259 OA
BRANCH  23  25
HETATM   25  O3  UNL     1       4.809   0.780   1.268  1.00  0.00    -0.296 OA
HETATM   26  C21 UNL     1       5.121  -0.559   0.997  1.00  0.00     0.185 C 
ENDBRANCH  23  25
ENDBRANCH  15  23
TORSDOF 4
