REMARK  7 active torsions:
REMARK  status: ('A' for Active; 'I' for Inactive)
REMARK    1  A    between atoms: C2_2  and  C22_35 
REMARK    2  A    between atoms: C3_4  and  C21_32 
REMARK    3  A    between atoms: C5_6  and  N2_7 
REMARK    4  A    between atoms: C6_8  and  C20_29 
REMARK    5  A    between atoms: C12_14  and  O1_16 
REMARK    6  A    between atoms: O1_16  and  C14_17 
REMARK    7  A    between atoms: C15_19  and  C19_26 
ROOT
HETATM    1  N2  UNL     1       8.627  -0.018   0.810  1.00  0.00     0.142 N 
HETATM    2  C6  UNL     1       9.219   1.232   0.073  1.00  0.00     0.305 C 
HETATM    3  C7  UNL     1       8.204   2.377   0.043  1.00  0.00     0.047 C 
HETATM    4  C8  UNL     1       6.955   1.696  -0.426  1.00  0.00     0.036 C 
HETATM    5  C9  UNL     1       7.019   0.175  -0.309  1.00  0.00     0.223 C 
HETATM    6  C10 UNL     1       5.926   0.002   0.743  1.00  0.00     0.069 C 
HETATM    7  C11 UNL     1       4.508   0.193   0.255  1.00  0.00     0.181 C 
HETATM    8  C12 UNL     1       4.377   1.497  -0.530  1.00  0.00     0.148 C 
HETATM    9  C13 UNL     1       5.605   2.375  -0.386  1.00  0.00     0.034 C 
HETATM   10  O7  UNL     1       3.953  -0.929  -0.281  1.00  0.00    -0.221 OA
ENDROOT
BRANCH   1  11
HETATM   11  C5  UNL     1       9.431  -1.373  -0.757  1.00  0.00     0.228 C 
HETATM   12  C1  UNL     1      10.670  -2.047  -0.191  1.00  0.00     0.069 C 
HETATM   13  C2  UNL     1      10.450  -3.211   0.795  1.00  0.00     0.192 C 
HETATM   14  N1  UNL     1       9.276  -4.051   0.495  1.00  0.00    -0.260 NA
HETATM   15  C3  UNL     1       8.158  -3.543  -0.212  1.00  0.00     0.120 C 
HETATM   16  C4  UNL     1       8.356  -2.372  -1.129  1.00  0.00     0.085 C 
BRANCH  13  17
HETATM   17  C22 UNL     1      10.383  -2.803   2.262  1.00  0.00     0.209 C 
HETATM   18  O12 UNL     1      10.967  -3.330   3.180  1.00  0.00    -0.646 OA
HETATM   19  O13 UNL     1       9.566  -1.755   2.451  1.00  0.00    -0.646 OA
ENDBRANCH  13  17
BRANCH  15  20
HETATM   20  C21 UNL     1       6.737  -3.897   0.200  1.00  0.00     0.225 C 
HETATM   21  O10 UNL     1       5.972  -2.909   0.624  1.00  0.00    -0.643 OA
HETATM   22  O11 UNL     1       6.282  -5.164   0.131  1.00  0.00    -0.643 OA
ENDBRANCH  15  20
ENDBRANCH   1  11
BRANCH   2  23
HETATM   23  C20 UNL     1      10.315   1.369   1.091  1.00  0.00     0.218 C 
HETATM   24  O8  UNL     1      11.494   1.273   0.704  1.00  0.00    -0.646 OA
HETATM   25  O9  UNL     1       9.906   1.355   2.271  1.00  0.00    -0.646 OA
ENDBRANCH   2  23
BRANCH   8  26
HETATM   26  O1  UNL     1       3.224   2.026  -1.042  1.00  0.00    -0.329 OA
BRANCH  26  27
HETATM   27  C14 UNL     1       1.988   1.473  -0.651  1.00  0.00     0.270 C 
HETATM   28  O2  UNL     1       1.117   1.861  -1.695  1.00  0.00    -0.326 OA
HETATM   29  C15 UNL     1      -0.179   1.349  -1.522  1.00  0.00     0.184 C 
HETATM   30  C16 UNL     1      -0.773   1.901  -0.232  1.00  0.00     0.215 C 
HETATM   31  C17 UNL     1       0.122   1.568   0.946  1.00  0.00     0.220 C 
HETATM   32  O5  UNL     1      -2.040   1.342   0.020  1.00  0.00    -0.218 OA
HETATM   33  C18 UNL     1       1.522   2.069   0.657  1.00  0.00     0.241 C 
HETATM   34  O4  UNL     1      -0.382   2.189   2.100  1.00  0.00    -0.218 OA
HETATM   35  O3  UNL     1       2.381   1.675   1.696  1.00  0.00    -0.215 OA
BRANCH  29  36
HETATM   36  C19 UNL     1      -1.012   1.722  -2.740  1.00  0.00     0.214 C 
HETATM   37  O6  UNL     1      -0.499   1.068  -3.884  1.00  0.00    -0.218 OA
ENDBRANCH  29  36
ENDBRANCH  26  27
ENDBRANCH   8  26
TORSDOF 7
