REMARK  4 active torsions:
REMARK  status: ('A' for Active; 'I' for Inactive)
REMARK    1  A    between atoms: C1_1  and  O3_11 
REMARK    2  A    between atoms: C4_4  and  C8_9 
REMARK    3  A    between atoms: C6_6  and  O1_7 
REMARK    4  A    between atoms: O3_11  and  C9_12 
ROOT
HETATM    1  C1  UNL     1       0.897  -0.052   0.105  1.00  0.00     0.125 A 
HETATM    2  C2  UNL     1       1.315  -1.228   0.614  1.00  0.00     0.027 A 
HETATM    3  C3  UNL     1       0.531  -2.312   0.681  1.00  0.00     0.005 A 
HETATM    4  C4  UNL     1      -0.733  -2.240   0.237  1.00  0.00     0.044 A 
HETATM    5  C5  UNL     1      -1.152  -1.078  -0.292  1.00  0.00     0.029 A 
HETATM    6  C6  UNL     1      -0.353   0.002  -0.415  1.00  0.00     0.117 A 
ENDROOT
BRANCH   1   7
HETATM    7  O3  UNL     1       1.784   0.997   0.102  1.00  0.00    -0.274 OA
BRANCH   7   8
HETATM    8  C9  UNL     1       1.317   2.253   0.347  1.00  0.00     0.277 C 
HETATM    9  O4  UNL     1       1.395   3.172  -0.440  1.00  0.00    -0.264 OA
HETATM   10  C10 UNL     1       0.759   2.379   1.753  1.00  0.00     0.107 C 
ENDBRANCH   7   8
ENDBRANCH   1   7
BRANCH   6  11
HETATM   11  O1  UNL     1      -0.874   1.161  -0.932  1.00  0.00    -0.326 OA
HETATM   12  C7  UNL     1      -0.691   1.297  -2.323  1.00  0.00     0.181 C 
ENDBRANCH   6  11
BRANCH   4  13
HETATM   13  C8  UNL     1      -1.559  -3.315   0.323  1.00  0.00     0.234 C 
HETATM   14  O2  UNL     1      -2.708  -3.325  -0.053  1.00  0.00    -0.283 OA
ENDBRANCH   4  13
TORSDOF 4
