REMARK  0 active torsions:
REMARK  status: ('A' for Active; 'I' for Inactive)
ROOT
HETATM    1  C1  UNL     1       2.054  -2.768   0.421  1.00  0.00     0.133 A 
HETATM    2  C2  UNL     1       0.823  -2.393   0.031  1.00  0.00     0.046 A 
HETATM    3  C3  UNL     1       0.435  -1.105   0.026  1.00  0.00     0.083 A 
HETATM    4  C4  UNL     1       1.305  -0.156   0.418  1.00  0.00     0.018 A 
HETATM    5  C5  UNL     1       2.539  -0.516   0.808  1.00  0.00     0.001 A 
HETATM    6  C6  UNL     1       2.906  -1.805   0.810  1.00  0.00     0.027 A 
HETATM    7  C7  UNL     1       0.895   1.295   0.420  1.00  0.00     0.131 A 
HETATM    8  N1  UNL     1      -0.497   1.422  -0.006  1.00  0.00    -0.331 N 
HETATM    9  C8  UNL     1      -1.135   0.380  -0.336  1.00  0.00     0.147 A 
HETATM   10  N2  UNL     1      -0.743  -0.821  -0.345  1.00  0.00    -0.231 NA
HETATM   11  C9  UNL     1      -2.555   0.621  -0.782  1.00  0.00     0.210 C 
HETATM   12  C10 UNL     1      -2.774   2.025  -0.221  1.00  0.00     0.065 C 
HETATM   13  C11 UNL     1      -1.351   2.613  -0.167  1.00  0.00     0.106 C 
HETATM   14  O1  UNL     1      -2.609   0.633  -2.195  1.00  0.00    -0.215 OA
HETATM   15  O2  UNL     1       2.430  -4.075   0.429  1.00  0.00    -0.190 OA
ENDROOT
TORSDOF 0
