REMARK  2 active torsions:
REMARK  status: ('A' for Active; 'I' for Inactive)
REMARK    1  A    between atoms: C9_11  and  C12_14 
REMARK    2  A    between atoms: C17_19  and  N3_20 
ROOT
HETATM    1  C1  UNL     1       3.107  -3.407   1.064  1.00  0.00     0.002 A 
HETATM    2  C2  UNL     1       1.972  -2.901   0.558  1.00  0.00     0.019 A 
HETATM    3  C3  UNL     1       1.389  -1.823   1.116  1.00  0.00     0.081 A 
HETATM    4  C4  UNL     1       1.960  -1.248   2.192  1.00  0.00     0.018 A 
HETATM    5  C5  UNL     1       3.098  -1.758   2.695  1.00  0.00    -0.001 A 
HETATM    6  C6  UNL     1       3.672  -2.834   2.136  1.00  0.00    -0.000 A 
HETATM    7  C7  UNL     1       1.321  -0.041   2.831  1.00  0.00     0.131 A 
HETATM    8  N1  UNL     1       0.086   0.311   2.130  1.00  0.00    -0.333 N 
HETATM    9  C8  UNL     1      -0.258  -0.377   1.123  1.00  0.00     0.120 A 
HETATM   10  N2  UNL     1       0.316  -1.380   0.611  1.00  0.00    -0.233 NA
HETATM   11  C9  UNL     1      -1.549   0.060   0.490  1.00  0.00     0.082 C 
HETATM   12  C10 UNL     1      -1.891   1.360   1.239  1.00  0.00     0.036 C 
HETATM   13  C11 UNL     1      -0.924   1.342   2.440  1.00  0.00     0.104 C 
ENDROOT
BRANCH  11  14
HETATM   14  C12 UNL     1      -1.773   0.089  -1.026  1.00  0.00     0.000 A 
HETATM   15  C13 UNL     1      -2.816  -0.699  -1.381  1.00  0.00    -0.002 A 
HETATM   16  C14 UNL     1      -3.303  -0.794  -2.621  1.00  0.00    -0.000 A 
HETATM   17  C15 UNL     1      -2.733  -0.042  -3.561  1.00  0.00     0.002 A 
HETATM   18  C16 UNL     1      -1.698   0.740  -3.223  1.00  0.00     0.017 A 
HETATM   19  C17 UNL     1      -1.149   0.843  -1.984  1.00  0.00     0.052 A 
BRANCH  19  20
HETATM   20  N3  UNL     1      -0.131   1.628  -1.881  1.00  0.00    -0.345 N 
HETATM   21  C18 UNL     1       0.302   2.483  -3.033  1.00  0.00     0.126 C 
HETATM   22  C19 UNL     1       0.738   1.684  -0.685  1.00  0.00     0.126 C 
ENDBRANCH  19  20
ENDBRANCH  11  14
TORSDOF 2
