REMARK  11 active torsions:
REMARK  status: ('A' for Active; 'I' for Inactive)
REMARK    1  A    between atoms: C4_4  and  C7_7 
REMARK    2  A    between atoms: C7_7  and  C8_8 
REMARK    3  A    between atoms: C17_23  and  C18_24 
REMARK    4  A    between atoms: C18_24  and  C19_25 
REMARK    5  A    between atoms: C19_25  and  C20_26 
REMARK    6  A    between atoms: C22_31  and  C24_35 
REMARK    7  A    between atoms: C24_35  and  C25_36 
REMARK    8  A    between atoms: C31_44  and  C32_45 
REMARK    9  A    between atoms: C39_58  and  C44_67 
REMARK       I    between atoms: C44_67  and  N13_69 
REMARK   10  A    between atoms: N13_69  and  C45_70 
REMARK   11  A    between atoms: C45_70  and  C46_71 
ROOT
HETATM    1  C8  UNL     1       3.265   3.200  -3.375  1.00  0.00     0.191 C 
HETATM    2  N1  UNL     1       4.393   3.644  -2.553  1.00  0.00    -0.230 NA
HETATM    3  C9  UNL     1       4.156   3.827  -1.119  1.00  0.00     0.253 C 
HETATM    4  C10 UNL     1       4.691   2.663  -0.266  1.00  0.00     0.102 C 
HETATM    5  C11 UNL     1       3.887   1.362  -0.406  1.00  0.00     0.079 C 
HETATM    6  S1  UNL     1       4.615   0.112   0.708  1.00  0.00    -0.082 SA
HETATM    7  S2  UNL     1       3.138  -1.261   0.917  1.00  0.00    -0.080 SA
HETATM    8  C12 UNL     1       2.173  -0.609   2.322  1.00  0.00     0.101 C 
HETATM    9  C13 UNL     1       0.896  -1.442   2.519  1.00  0.00     0.189 C 
HETATM   10  N2  UNL     1       0.026  -1.530   1.345  1.00  0.00    -0.237 N 
HETATM   11  C14 UNL     1      -0.422  -0.249   0.794  1.00  0.00     0.363 A 
HETATM   12  O1  UNL     1      -0.064   0.839   1.177  1.00  0.00    -0.248 OA
HETATM   13  C15 UNL     1      -1.419  -0.506  -0.346  1.00  0.00     0.243 A 
HETATM   14  N3  UNL     1      -1.728   0.685  -1.137  1.00  0.00    -0.225 NA
HETATM   15  C16 UNL     1      -2.399   1.764  -0.409  1.00  0.00     0.274 C 
HETATM   16  C17 UNL     1      -2.901   2.818  -1.411  1.00  0.00     0.187 C 
HETATM   17  N5  UNL     1      -1.820   3.446  -2.172  1.00  0.00    -0.229 NA
HETATM   18  C21 UNL     1      -1.082   4.481  -1.444  1.00  0.00     0.275 C 
HETATM   19  C22 UNL     1       0.074   4.988  -2.319  1.00  0.00     0.191 C 
HETATM   20  N6  UNL     1       1.087   3.938  -2.428  1.00  0.00    -0.228 NA
HETATM   21  C23 UNL     1       2.105   4.210  -3.443  1.00  0.00     0.275 C 
HETATM   22  O3  UNL     1       2.043   5.117  -4.239  1.00  0.00    -0.268 OA
HETATM   23  O4  UNL     1      -1.342   4.873  -0.332  1.00  0.00    -0.268 OA
HETATM   24  O5  UNL     1      -2.536   1.818   0.790  1.00  0.00    -0.268 OA
HETATM   25  C31 UNL     1      -0.826  -1.558  -1.275  1.00  0.00     0.315 A 
HETATM   26  C33 UNL     1       1.306  -2.842   2.903  1.00  0.00     0.357 C 
HETATM   27  O7  UNL     1       2.434  -3.061   3.275  1.00  0.00    -0.262 OA
HETATM   28  N8  UNL     1       0.399  -3.865   2.831  1.00  0.00     0.061 N 
HETATM   29  C34 UNL     1      -1.027  -3.813   3.141  1.00  0.00     0.243 A 
HETATM   30  C35 UNL     1      -1.666  -4.654   2.050  1.00  0.00     0.078 A 
HETATM   31  C36 UNL     1      -0.566  -5.601   1.583  1.00  0.00     0.088 C 
HETATM   32  C37 UNL     1       0.646  -5.246   2.427  1.00  0.00     0.281 C 
HETATM   33  C38 UNL     1       0.744  -6.149   3.632  1.00  0.00     0.282 C 
HETATM   34  O8  UNL     1       1.740  -6.808   3.814  1.00  0.00    -0.269 OA
HETATM   35  N9  UNL     1      -0.296  -6.221   4.519  1.00  0.00    -0.229 NA
HETATM   36  C39 UNL     1      -1.491  -5.430   4.301  1.00  0.00     0.186 C 
HETATM   37  C40 UNL     1      -2.119  -5.814   2.968  1.00  0.00     0.041 A 
HETATM   38  C41 UNL     1      -2.171  -4.592   2.060  1.00  0.00     0.052 A 
HETATM   39  C42 UNL     1      -0.759  -4.073   1.825  1.00  0.00     0.213 A 
HETATM   40  N10 UNL     1      -0.809  -2.894   0.948  1.00  0.00    -0.211 NA
HETATM   41  C43 UNL     1       0.261  -2.301   0.623  1.00  0.00     0.433 C 
HETATM   42  N11 UNL     1       0.218  -1.290  -0.129  1.00  0.00     0.098 N 
HETATM   43  H1  UNL     1       1.082  -0.811  -0.391  1.00  0.00     0.301 HD
HETATM   44  N12 UNL     1       1.375  -2.723   1.052  1.00  0.00    -0.105 N 
HETATM   45  O11 UNL     1       3.598   4.792  -0.654  1.00  0.00    -0.271 OA
ENDROOT
BRANCH   1  46
HETATM   46  C7  UNL     1       3.772   2.957  -4.791  1.00  0.00     0.060 C 
BRANCH  46  47
HETATM   47  C4  UNL     1       3.580   1.516  -5.149  1.00  0.00    -0.018 A 
HETATM   48  C3  UNL     1       3.972   1.052  -6.405  1.00  0.00     0.023 A 
HETATM   49  C2  UNL     1       3.793  -0.290  -6.739  1.00  0.00     0.131 A 
HETATM   50  C1  UNL     1       3.223  -1.169  -5.818  1.00  0.00     0.027 A 
HETATM   51  O12 UNL     1       4.174  -0.741  -7.959  1.00  0.00    -0.190 OA
HETATM   52  C6  UNL     1       2.832  -0.705  -4.562  1.00  0.00     0.002 A 
HETATM   53  C5  UNL     1       3.010   0.638  -4.228  1.00  0.00    -0.004 A 
ENDBRANCH  46  47
ENDBRANCH   1  46
BRANCH  19  54
HETATM   54  C24 UNL     1       0.690   6.226  -1.682  1.00  0.00     0.060 C 
BRANCH  54  55
HETATM   55  C25 UNL     1       0.579   7.382  -2.627  1.00  0.00    -0.020 A 
HETATM   56  C26 UNL     1       1.076   8.633  -2.261  1.00  0.00    -0.004 A 
HETATM   57  C27 UNL     1       0.973   9.710  -3.141  1.00  0.00    -0.000 A 
HETATM   58  C28 UNL     1       0.371   9.536  -4.388  1.00  0.00    -0.000 A 
HETATM   59  C29 UNL     1      -0.127   8.286  -4.754  1.00  0.00    -0.000 A 
HETATM   60  C30 UNL     1      -0.023   7.209  -3.873  1.00  0.00    -0.004 A 
ENDBRANCH  54  55
ENDBRANCH  19  54
BRANCH  16  61
HETATM   61  C18 UNL     1      -3.646   3.902  -0.642  1.00  0.00     0.044 C 
BRANCH  61  62
HETATM   62  C19 UNL     1      -5.096   3.950  -1.106  1.00  0.00     0.094 C 
BRANCH  62  63
HETATM   63  C20 UNL     1      -5.833   5.023  -0.343  1.00  0.00     0.274 C 
HETATM   64  N4  UNL     1      -7.160   5.251  -0.593  1.00  0.00    -0.107 N 
HETATM   65  O2  UNL     1      -5.253   5.681   0.487  1.00  0.00    -0.269 OA
ENDBRANCH  62  63
ENDBRANCH  61  62
ENDBRANCH  16  61
BRANCH  25  66
HETATM   66  C32 UNL     1      -1.717  -2.775  -1.292  1.00  0.00     0.306 C 
HETATM   67  N7  UNL     1      -1.383  -3.857  -2.061  1.00  0.00    -0.105 N 
HETATM   68  O6  UNL     1      -2.725  -2.795  -0.626  1.00  0.00    -0.266 OA
ENDBRANCH  25  66
BRANCH  36  69
HETATM   69  C44 UNL     1      -2.477  -5.691   5.414  1.00  0.00     0.274 C 
HETATM   70  O9  UNL     1      -3.544  -5.126   5.420  1.00  0.00    -0.268 OA
HETATM   71  N13 UNL     1      -2.160  -6.568   6.416  1.00  0.00    -0.226 NA
BRANCH  71  72
HETATM   72  C45 UNL     1      -3.107  -6.819   7.485  1.00  0.00     0.220 C 
BRANCH  72  73
HETATM   73  C46 UNL     1      -3.402  -5.529   8.210  1.00  0.00     0.298 C 
HETATM   74  O10 UNL     1      -4.173  -5.521   9.140  1.00  0.00    -0.266 OA
HETATM   75  N14 UNL     1      -2.797  -4.367   7.813  1.00  0.00    -0.105 N 
ENDBRANCH  72  73
ENDBRANCH  71  72
ENDBRANCH  36  69
TORSDOF 11
