REMARK  2 active torsions:
REMARK  status: ('A' for Active; 'I' for Inactive)
REMARK    1  A    between atoms: C4_4  and  O2_9 
REMARK    2  A    between atoms: C5_5  and  O1_7 
ROOT
HETATM    1  C1  UNL     1       2.005   1.159  -0.697  1.00  0.00     0.002 A 
HETATM    2  C2  UNL     1       2.539  -0.085  -0.365  1.00  0.00     0.002 A 
HETATM    3  C3  UNL     1       1.691  -1.155  -0.081  1.00  0.00     0.026 A 
HETATM    4  C4  UNL     1       0.308  -0.981  -0.130  1.00  0.00     0.116 A 
HETATM    5  C5  UNL     1      -0.227   0.264  -0.462  1.00  0.00     0.116 A 
HETATM    6  C6  UNL     1       0.622   1.334  -0.746  1.00  0.00     0.026 A 
ENDROOT
BRANCH   4   7
HETATM    7  O2  UNL     1      -0.516  -2.020   0.146  1.00  0.00    -0.326 OA
HETATM    8  C8  UNL     1      -1.039  -2.177   1.437  1.00  0.00     0.181 C 
ENDBRANCH   4   7
BRANCH   5   9
HETATM    9  O1  UNL     1      -1.570   0.433  -0.509  1.00  0.00    -0.326 OA
HETATM   10  C7  UNL     1      -2.116   1.724  -0.471  1.00  0.00     0.181 C 
ENDBRANCH   5   9
TORSDOF 2
