REMARK  4 active torsions:
REMARK  status: ('A' for Active; 'I' for Inactive)
REMARK    1  A    between atoms: C15_16  and  C18_19 
REMARK    2  A    between atoms: C18_19  and  C19_20 
REMARK    3  A    between atoms: C19_20  and  C20_21 
REMARK    4  A    between atoms: C20_21  and  C21_22 
ROOT
HETATM    1  C1  UNL     1      -0.177  -0.911  -2.674  1.00  0.00     0.033 C 
HETATM    2  C2  UNL     1      -0.951  -1.806  -1.719  1.00  0.00     0.152 C 
HETATM    3  C3  UNL     1      -0.043  -2.896  -1.113  1.00  0.00     0.028 C 
HETATM    4  C4  UNL     1       1.428  -2.368  -0.908  1.00  0.00     0.002 C 
HETATM    5  C5  UNL     1       1.619  -0.828  -0.752  1.00  0.00     0.000 C 
HETATM    6  C6  UNL     1       0.949  -0.131  -1.976  1.00  0.00     0.003 C 
HETATM    7  C7  UNL     1       3.139  -0.394  -0.651  1.00  0.00     0.003 C 
HETATM    8  C8  UNL     1       4.207  -1.531  -0.619  1.00  0.00     0.000 C 
HETATM    9  C9  UNL     1       3.887  -2.401  -1.854  1.00  0.00     0.000 C 
HETATM   10  C10 UNL     1       2.453  -2.961  -1.902  1.00  0.00     0.000 C 
HETATM   11  C11 UNL     1       5.647  -0.893  -0.721  1.00  0.00     0.005 C 
HETATM   12  C12 UNL     1       5.867   0.025   0.525  1.00  0.00     0.061 C 
HETATM   13  C13 UNL     1       4.933   1.225   0.393  1.00  0.00     0.155 C 
HETATM   14  C14 UNL     1       3.473   0.746   0.340  1.00  0.00     0.033 C 
HETATM   15  O1  UNL     1       5.014   2.067   1.513  1.00  0.00    -0.223 OA
HETATM   16  C15 UNL     1       7.389   0.078   0.821  1.00  0.00     0.154 C 
HETATM   17  C16 UNL     1       7.703  -1.413   0.549  1.00  0.00     0.033 C 
HETATM   18  C17 UNL     1       6.824  -1.894  -0.616  1.00  0.00     0.003 C 
HETATM   19  O3  UNL     1       8.048   0.813  -0.173  1.00  0.00    -0.223 OA
HETATM   20  C26 UNL     1       5.870  -0.151  -2.077  1.00  0.00     0.000 C 
HETATM   21  C27 UNL     1       4.096  -2.407   0.659  1.00  0.00     0.000 C 
HETATM   22  C28 UNL     1       0.889  -0.355   0.535  1.00  0.00     0.000 C 
HETATM   23  C29 UNL     1      -0.653  -3.355   0.242  1.00  0.00     0.003 C 
HETATM   24  C30 UNL     1      -0.101  -4.178  -1.988  1.00  0.00     0.003 C 
HETATM   25  O4  UNL     1      -2.054  -2.360  -2.399  1.00  0.00    -0.224 OA
ENDROOT
BRANCH  16  26
HETATM   26  C18 UNL     1       7.955   0.516   2.206  1.00  0.00     0.153 C 
HETATM   27  O2  UNL     1       9.047  -0.329   2.512  1.00  0.00    -0.223 OA
HETATM   28  C25 UNL     1       6.987   0.310   3.377  1.00  0.00     0.036 C 
BRANCH  26  29
HETATM   29  C19 UNL     1       8.604   1.922   2.266  1.00  0.00     0.038 C 
BRANCH  29  30
HETATM   30  C20 UNL     1       7.716   3.142   2.000  1.00  0.00     0.028 C 
BRANCH  30  31
HETATM   31  C21 UNL     1       8.475   4.444   1.949  1.00  0.00    -0.035 C 
HETATM   32  C22 UNL     1       8.077   5.544   1.284  1.00  0.00    -0.048 C 
HETATM   33  C23 UNL     1       8.927   6.792   1.248  1.00  0.00     0.026 C 
HETATM   34  C24 UNL     1       6.781   5.647   0.513  1.00  0.00     0.026 C 
ENDBRANCH  30  31
ENDBRANCH  29  30
ENDBRANCH  26  29
ENDBRANCH  16  26
TORSDOF 4
