REMARK  0 active torsions:
REMARK  status: ('A' for Active; 'I' for Inactive)
ROOT
HETATM    1  C1  UNL     1      -3.213   1.152   1.446  1.00  0.00     0.272 C 
HETATM    2  O1  UNL     1      -3.152  -0.255   1.376  1.00  0.00    -0.302 OA
HETATM    3  C2  UNL     1      -2.524  -0.765   0.231  1.00  0.00     0.152 C 
HETATM    4  C3  UNL     1      -1.088  -0.257   0.231  1.00  0.00     0.029 C 
HETATM    5  C4  UNL     1      -1.088   1.266   0.231  1.00  0.00     0.012 C 
HETATM    6  C5  UNL     1      -1.838   1.774   1.456  1.00  0.00     0.096 C 
HETATM    7  C6  UNL     1       0.347   1.774   0.268  1.00  0.00     0.003 C 
HETATM    8  C7  UNL     1       1.583   1.050   1.013  1.00  0.00     0.031 C 
HETATM    9  C8  UNL     1       1.498  -0.411   0.590  1.00  0.00     0.129 C 
HETATM   10  C9  UNL     1       1.122  -0.492  -0.884  1.00  0.00     0.056 C 
HETATM   11  C10 UNL     1      -0.370  -0.765  -1.013  1.00  0.00     0.009 C 
HETATM   12  C11 UNL     1       1.891  -1.673  -1.389  1.00  0.00     0.043 C 
HETATM   13  C12 UNL     1       2.886  -2.003  -0.538  1.00  0.00     0.292 C 
HETATM   14  O2  UNL     1       2.796  -0.940   0.638  1.00  0.00    -0.301 OA
HETATM   15  O3  UNL     1       3.676  -2.912  -0.648  1.00  0.00    -0.260 OA
HETATM   16  C13 UNL     1       1.627  -2.316  -2.531  1.00  0.00     0.001 C 
HETATM   17  C14 UNL     1       0.745   1.548  -1.185  1.00  0.00     0.000 C 
HETATM   18  C15 UNL     1      -0.370  -0.765   1.474  1.00  0.00     0.003 C 
HETATM   19  O4  UNL     1      -4.242   1.783   1.491  1.00  0.00    -0.264 OA
ENDROOT
TORSDOF 0
