REMARK  5 active torsions:
REMARK  status: ('A' for Active; 'I' for Inactive)
REMARK    1  A    between atoms: C4_5  and  C17_23 
REMARK    2  A    between atoms: C7_8  and  O4_16 
REMARK    3  A    between atoms: O4_16  and  C13_17 
REMARK    4  A    between atoms: C13_17  and  C14_18 
REMARK    5  A    between atoms: C14_18  and  C15_19 
ROOT
HETATM    1  O1  UNL     1      -2.902   0.488   2.982  1.00  0.00    -0.298 OA
HETATM    2  C1  UNL     1      -3.001  -0.850   3.042  1.00  0.00     0.292 C 
HETATM    3  C2  UNL     1      -2.822  -1.670   1.983  1.00  0.00     0.043 C 
HETATM    4  C3  UNL     1      -2.116  -1.171   0.761  1.00  0.00     0.062 C 
HETATM    5  C4  UNL     1      -2.116   0.352   0.761  1.00  0.00     0.055 C 
HETATM    6  C5  UNL     1      -1.824   0.860   2.167  1.00  0.00     0.157 C 
HETATM    7  C6  UNL     1      -1.045   0.860  -0.195  1.00  0.00     0.038 C 
HETATM    8  C7  UNL     1       0.541   0.205  -0.309  1.00  0.00     0.132 C 
HETATM    9  C8  UNL     1       0.022  -1.213  -0.507  1.00  0.00     0.084 C 
HETATM   10  C9  UNL     1      -0.681  -1.679   0.761  1.00  0.00     0.136 C 
HETATM   11  O2  UNL     1      -0.727  -3.074   0.630  1.00  0.00    -0.300 OA
HETATM   12  C10 UNL     1       0.379  -3.371  -0.062  1.00  0.00     0.292 C 
HETATM   13  C11 UNL     1       1.180  -2.152  -0.645  1.00  0.00     0.045 C 
HETATM   14  C12 UNL     1       2.430  -2.008  -1.097  1.00  0.00     0.001 C 
HETATM   15  O3  UNL     1       0.741  -4.511  -0.229  1.00  0.00    -0.260 OA
HETATM   16  C19 UNL     1      -3.275  -2.927   2.027  1.00  0.00     0.001 C 
HETATM   17  O7  UNL     1      -3.266  -1.351   4.109  1.00  0.00    -0.260 OA
ENDROOT
BRANCH   8  18
HETATM   18  O4  UNL     1       1.428   0.741  -1.253  1.00  0.00    -0.301 OA
BRANCH  18  19
HETATM   19  C13 UNL     1       2.550   1.347  -0.848  1.00  0.00     0.294 C 
HETATM   20  O6  UNL     1       2.799   1.432   0.331  1.00  0.00    -0.259 OA
BRANCH  19  21
HETATM   21  C14 UNL     1       3.405   1.862  -1.758  1.00  0.00     0.074 C 
HETATM   22  C16 UNL     1       3.130   1.767  -3.063  1.00  0.00     0.004 C 
BRANCH  21  23
HETATM   23  C15 UNL     1       4.661   2.540  -1.305  1.00  0.00     0.214 C 
HETATM   24  O5  UNL     1       5.380   2.989  -2.422  1.00  0.00    -0.215 OA
ENDBRANCH  21  23
ENDBRANCH  19  21
ENDBRANCH  18  19
ENDBRANCH   8  18
BRANCH   5  25
HETATM   25  C17 UNL     1      -3.457   0.851   0.319  1.00  0.00    -0.024 C 
HETATM   26  C18 UNL     1      -3.545   1.951  -0.436  1.00  0.00    -0.005 C 
ENDBRANCH   5  25
TORSDOF 5
