REMARK  8 active torsions:
REMARK  status: ('A' for Active; 'I' for Inactive)
REMARK    1  A    between atoms: C4_5  and  C18_25 
REMARK    2  A    between atoms: C7_8  and  O5_18 
REMARK    3  A    between atoms: C8_9  and  C10_12 
REMARK    4  A    between atoms: C10_12  and  C11_13 
REMARK    5  A    between atoms: C11_13  and  O4_15 
REMARK    6  A    between atoms: O5_18  and  C14_19 
REMARK    7  A    between atoms: C14_19  and  C15_20 
REMARK    8  A    between atoms: C15_20  and  C17_22 
ROOT
HETATM    1  O1  UNL     1      -4.005   0.745  -0.858  1.00  0.00    -0.298 OA
HETATM    2  C1  UNL     1      -4.173  -0.626  -1.119  1.00  0.00     0.292 C 
HETATM    3  C2  UNL     1      -3.182  -1.403  -1.607  1.00  0.00     0.043 C 
HETATM    4  C3  UNL     1      -1.771  -0.904  -1.607  1.00  0.00     0.065 C 
HETATM    5  C4  UNL     1      -1.771   0.619  -1.607  1.00  0.00     0.055 C 
HETATM    6  C5  UNL     1      -2.701   1.126  -0.513  1.00  0.00     0.157 C 
HETATM    7  C6  UNL     1      -0.358   1.126  -1.349  1.00  0.00     0.038 C 
HETATM    8  C7  UNL     1       0.152   0.558  -0.031  1.00  0.00     0.132 C 
HETATM    9  C8  UNL     1       0.360  -0.844  -0.325  1.00  0.00     0.086 C 
HETATM   10  C9  UNL     1      -1.053  -1.412  -0.363  1.00  0.00     0.163 C 
HETATM   11  O2  UNL     1      -0.993  -2.812  -0.397  1.00  0.00    -0.223 OA
HETATM   12  C20 UNL     1      -3.462  -2.618  -2.090  1.00  0.00     0.001 C 
HETATM   13  O8  UNL     1      -5.249  -1.130  -0.898  1.00  0.00    -0.260 OA
ENDROOT
BRANCH   8  14
HETATM   14  O5  UNL     1       1.354   1.173   0.347  1.00  0.00    -0.301 OA
BRANCH  14  15
HETATM   15  C14 UNL     1       1.446   1.790   1.531  1.00  0.00     0.294 C 
HETATM   16  O7  UNL     1       0.493   1.817   2.274  1.00  0.00    -0.259 OA
BRANCH  15  17
HETATM   17  C15 UNL     1       2.603   2.383   1.896  1.00  0.00     0.074 C 
HETATM   18  C16 UNL     1       2.695   2.999   3.079  1.00  0.00     0.004 C 
BRANCH  17  19
HETATM   19  C17 UNL     1       3.784   2.350   0.975  1.00  0.00     0.214 C 
HETATM   20  O6  UNL     1       3.446   1.653  -0.193  1.00  0.00    -0.215 OA
ENDBRANCH  17  19
ENDBRANCH  15  17
ENDBRANCH  14  15
ENDBRANCH   8  14
BRANCH   9  21
HETATM   21  C10 UNL     1       1.171  -1.501   0.747  1.00  0.00     0.045 C 
HETATM   22  C13 UNL     1       0.751  -1.471   2.016  1.00  0.00     0.001 C 
BRANCH  21  23
HETATM   23  C11 UNL     1       2.328  -2.124   0.433  1.00  0.00     0.292 C 
HETATM   24  O3  UNL     1       2.708  -2.150  -0.713  1.00  0.00    -0.260 OA
BRANCH  23  25
HETATM   25  O4  UNL     1       3.054  -2.711   1.392  1.00  0.00    -0.296 OA
HETATM   26  C12 UNL     1       2.613  -2.680   2.723  1.00  0.00     0.185 C 
ENDBRANCH  23  25
ENDBRANCH  21  23
ENDBRANCH   9  21
BRANCH   5  27
HETATM   27  C18 UNL     1      -2.245   1.118  -2.937  1.00  0.00    -0.024 C 
HETATM   28  C19 UNL     1      -2.327   2.432  -3.167  1.00  0.00    -0.005 C 
ENDBRANCH   5  27
TORSDOF 8
