REMARK  1 active torsions:
REMARK  status: ('A' for Active; 'I' for Inactive)
REMARK    1  A    between atoms: C4_5  and  C13_17 
ROOT
HETATM    1  O1  UNL     1      -1.722   1.093   2.403  1.00  0.00    -0.298 OA
HETATM    2  C1  UNL     1      -1.820  -0.244   2.463  1.00  0.00     0.292 C 
HETATM    3  C2  UNL     1      -1.641  -1.064   1.404  1.00  0.00     0.043 C 
HETATM    4  C3  UNL     1      -0.935  -0.565   0.182  1.00  0.00     0.062 C 
HETATM    5  C4  UNL     1      -0.935   0.958   0.182  1.00  0.00     0.055 C 
HETATM    6  C5  UNL     1      -0.643   1.465   1.588  1.00  0.00     0.157 C 
HETATM    7  C6  UNL     1       0.136   1.465  -0.774  1.00  0.00     0.040 C 
HETATM    8  C7  UNL     1       1.722   0.811  -0.888  1.00  0.00     0.159 C 
HETATM    9  C8  UNL     1       1.204  -0.607  -1.086  1.00  0.00     0.086 C 
HETATM   10  C9  UNL     1       0.500  -1.073   0.182  1.00  0.00     0.136 C 
HETATM   11  O2  UNL     1       0.454  -2.468   0.051  1.00  0.00    -0.300 OA
HETATM   12  C10 UNL     1       1.560  -2.765  -0.641  1.00  0.00     0.292 C 
HETATM   13  C11 UNL     1       2.361  -1.546  -1.224  1.00  0.00     0.045 C 
HETATM   14  C12 UNL     1       3.611  -1.402  -1.676  1.00  0.00     0.001 C 
HETATM   15  O3  UNL     1       1.922  -3.905  -0.808  1.00  0.00    -0.260 OA
HETATM   16  O4  UNL     1       2.609   1.346  -1.832  1.00  0.00    -0.223 OA
HETATM   17  C15 UNL     1      -2.094  -2.321   1.448  1.00  0.00     0.001 C 
HETATM   18  O5  UNL     1      -2.085  -0.746   3.530  1.00  0.00    -0.260 OA
ENDROOT
BRANCH   5  19
HETATM   19  C13 UNL     1      -2.276   1.457  -0.260  1.00  0.00    -0.024 C 
HETATM   20  C14 UNL     1      -2.508   2.771  -0.337  1.00  0.00    -0.005 C 
ENDBRANCH   5  19
TORSDOF 1
