REMARK  3 active torsions:
REMARK  status: ('A' for Active; 'I' for Inactive)
REMARK    1  A    between atoms: C3_3  and  O6_21 
REMARK    2  A    between atoms: O6_21  and  C16_22 
REMARK    3  A    between atoms: C16_22  and  C17_24 
ROOT
HETATM    1  C1  UNL     1      -1.969   0.054   0.566  1.00  0.00     0.010 C 
HETATM    2  C2  UNL     1      -0.811   0.723   0.566  1.00  0.00     0.003 C 
HETATM    3  C3  UNL     1       0.503   0.006   0.566  1.00  0.00     0.177 C 
HETATM    4  C4  UNL     1       0.273  -1.476   0.303  1.00  0.00     0.174 C 
HETATM    5  C5  UNL     1      -0.052  -1.687  -1.170  1.00  0.00     0.159 C 
HETATM    6  C6  UNL     1      -0.279  -0.336  -1.837  1.00  0.00     0.065 C 
HETATM    7  C7  UNL     1      -1.683   0.171  -1.643  1.00  0.00     0.147 A 
HETATM    8  C8  UNL     1      -2.811  -0.802  -1.428  1.00  0.00     0.175 C 
HETATM    9  O1  UNL     1      -2.349  -1.913  -0.697  1.00  0.00    -0.325 OA
HETATM   10  C9  UNL     1      -2.006  -1.442   0.578  1.00  0.00     0.256 C 
HETATM   11  O2  UNL     1      -0.743  -1.937   0.934  1.00  0.00    -0.323 OA
HETATM   12  C10 UNL     1      -1.864   1.554  -1.189  1.00  0.00     0.143 A 
HETATM   13  O3  UNL     1      -2.022   1.330  -2.418  1.00  0.00    -0.354 OA
HETATM   14  C11 UNL     1      -3.123   1.897  -0.439  1.00  0.00     0.037 C 
HETATM   15  C12 UNL     1      -3.284   0.771   0.566  1.00  0.00     0.029 C 
HETATM   16  O4  UNL     1       1.126  -2.228  -1.704  1.00  0.00    -0.298 OA
HETATM   17  C13 UNL     1       2.038  -2.676  -0.677  1.00  0.00     0.294 C 
HETATM   18  C14 UNL     1       1.555  -2.223   0.501  1.00  0.00     0.070 C 
HETATM   19  C15 UNL     1       2.144  -2.416   1.686  1.00  0.00     0.003 C 
HETATM   20  O5  UNL     1       3.041  -3.330  -0.840  1.00  0.00    -0.259 OA
ENDROOT
BRANCH   3  21
HETATM   21  O6  UNL     1       1.123   0.169   1.812  1.00  0.00    -0.297 OA
BRANCH  21  22
HETATM   22  C16 UNL     1       2.321   0.759   1.892  1.00  0.00     0.272 C 
HETATM   23  O7  UNL     1       2.856   0.899   2.966  1.00  0.00    -0.264 OA
BRANCH  22  24
HETATM   24  C17 UNL     1       3.005   1.250   0.639  1.00  0.00     0.086 C 
HETATM   25  C18 UNL     1       2.126   0.954  -0.569  1.00  0.00     0.010 C 
HETATM   26  C19 UNL     1       3.235   2.752   0.743  1.00  0.00     0.010 C 
ENDBRANCH  22  24
ENDBRANCH  21  22
ENDBRANCH   3  21
TORSDOF 3
