REMARK  2 active torsions:
REMARK  status: ('A' for Active; 'I' for Inactive)
REMARK    1  A    between atoms: C4_4  and  C7_7 
REMARK    2  A    between atoms: C7_7  and  C8_8 
ROOT
HETATM    1  C8  UNL     1      -0.261  -0.060   1.975  1.00  0.00     0.144 C 
HETATM    2  N1  UNL     1      -0.111   1.371   2.178  1.00  0.00    -0.236 NA
HETATM    3  C9  UNL     1       1.101   1.947   1.907  1.00  0.00     0.283 C 
HETATM    4  C10 UNL     1       1.770   1.412   0.664  1.00  0.00     0.298 C 
HETATM    5  N2  UNL     1       1.770  -0.026   0.664  1.00  0.00     0.146 N 
HETATM    6  C11 UNL     1       0.400  -0.463   0.664  1.00  0.00     0.275 C 
HETATM    7  C12 UNL     1       2.369  -0.463  -0.568  1.00  0.00     0.251 C 
HETATM    8  C13 UNL     1       2.903   0.743  -1.329  1.00  0.00     0.035 C 
HETATM    9  C14 UNL     1       1.739   1.568  -1.818  1.00  0.00     0.005 C 
HETATM   10  C15 UNL     1       0.988   1.920  -0.540  1.00  0.00     0.043 C 
HETATM   11  O1  UNL     1       1.591   2.806   2.600  1.00  0.00    -0.268 OA
ENDROOT
BRANCH   1  12
HETATM   12  C7  UNL     1      -1.742  -0.411   1.924  1.00  0.00     0.053 C 
BRANCH  12  13
HETATM   13  C4  UNL     1      -2.062  -1.036   0.602  1.00  0.00    -0.020 A 
HETATM   14  C3  UNL     1      -3.366  -1.444   0.321  1.00  0.00    -0.004 A 
HETATM   15  C2  UNL     1      -3.664  -2.027  -0.911  1.00  0.00    -0.000 A 
HETATM   16  C1  UNL     1      -2.658  -2.201  -1.861  1.00  0.00    -0.000 A 
HETATM   17  C6  UNL     1      -1.354  -1.794  -1.580  1.00  0.00    -0.000 A 
HETATM   18  C5  UNL     1      -1.056  -1.211  -0.348  1.00  0.00    -0.004 A 
ENDBRANCH  12  13
ENDBRANCH   1  12
TORSDOF 2
