REMARK  1 active torsions:
REMARK  status: ('A' for Active; 'I' for Inactive)
REMARK    1  A    between atoms: C9_10  and  C13_17 
ROOT
HETATM    1  C1  UNL     1      -3.268   0.204   0.599  1.00  0.00     0.034 C 
HETATM    2  C2  UNL     1      -2.625  -0.850  -0.293  1.00  0.00     0.015 C 
HETATM    3  C3  UNL     1      -1.147  -0.482  -0.293  1.00  0.00     0.111 C 
HETATM    4  C4  UNL     1      -1.147   1.041  -0.293  1.00  0.00     0.039 C 
HETATM    5  C5  UNL     1      -2.422   1.410   0.455  1.00  0.00     0.153 C 
HETATM    6  O1  UNL     1      -3.120   2.389  -0.264  1.00  0.00    -0.223 OA
HETATM    7  C6  UNL     1      -1.087   1.636  -1.693  1.00  0.00     0.003 C 
HETATM    8  C7  UNL     1       0.061   1.549   0.483  1.00  0.00     0.003 C 
HETATM    9  C8  UNL     1       1.329   0.932  -0.093  1.00  0.00     0.007 C 
HETATM   10  C9  UNL     1       1.880  -0.303   0.733  1.00  0.00     0.049 C 
HETATM   11  C10 UNL     1       0.887  -1.443   0.544  1.00  0.00     0.159 C 
HETATM   12  C11 UNL     1      -0.497  -0.989   0.988  1.00  0.00     0.189 C 
HETATM   13  O2  UNL     1      -1.224  -2.062   1.524  1.00  0.00    -0.220 OA
HETATM   14  O3  UNL     1       0.748  -1.656  -0.835  1.00  0.00    -0.301 OA
HETATM   15  C12 UNL     1      -0.557  -0.943  -1.602  1.00  0.00     0.274 C 
HETATM   16  O4  UNL     1      -0.895  -0.838  -2.757  1.00  0.00    -0.264 OA
ENDROOT
BRANCH  10  17
HETATM   17  C13 UNL     1       3.244  -0.699   0.259  1.00  0.00    -0.042 C 
HETATM   18  C14 UNL     1       3.392  -1.605  -0.923  1.00  0.00     0.026 C 
HETATM   19  C15 UNL     1       4.329  -0.242   0.891  1.00  0.00    -0.009 C 
ENDBRANCH  10  17
TORSDOF 1
