REMARK  2 active torsions:
REMARK  status: ('A' for Active; 'I' for Inactive)
REMARK    1  A    between atoms: C9_9  and  O4_30 
REMARK    2  A    between atoms: C10_10  and  O3_28 
ROOT
HETATM    1  C1  UNL     1      -3.185   0.052  -1.296  1.00  0.00     0.000 A 
HETATM    2  C2  UNL     1      -3.853  -1.105  -1.296  1.00  0.00     0.002 A 
HETATM    3  C3  UNL     1      -3.185  -2.263  -1.260  1.00  0.00     0.027 A 
HETATM    4  C4  UNL     1      -1.848  -2.263  -1.278  1.00  0.00     0.131 A 
HETATM    5  C5  UNL     1      -1.179  -1.105  -1.296  1.00  0.00     0.025 A 
HETATM    6  C6  UNL     1      -1.848   0.052  -1.296  1.00  0.00     0.002 A 
HETATM    7  C7  UNL     1       0.157  -1.106  -1.326  1.00  0.00     0.002 A 
HETATM    8  C8  UNL     1       0.802  -1.631  -2.373  1.00  0.00     0.026 A 
HETATM    9  C9  UNL     1       2.139  -1.631  -2.402  1.00  0.00     0.116 A 
HETATM   10  C10 UNL     1       2.828  -1.019  -1.429  1.00  0.00     0.116 A 
HETATM   11  C11 UNL     1       2.184  -0.527  -0.366  1.00  0.00     0.024 A 
HETATM   12  C12 UNL     1       0.848  -0.571  -0.314  1.00  0.00     0.011 A 
HETATM   13  C13 UNL     1       0.127  -0.009   0.871  1.00  0.00     0.244 C 
HETATM   14  N1  UNL     1       0.008   1.421   0.764  1.00  0.00     0.142 N 
HETATM   15  C14 UNL     1      -0.580   1.903   1.984  1.00  0.00     0.227 C 
HETATM   16  C15 UNL     1      -2.044   1.485   2.012  1.00  0.00     0.064 C 
HETATM   17  C16 UNL     1      -2.313   0.472   0.907  1.00  0.00     0.129 C 
HETATM   18  O1  UNL     1      -3.557  -0.119   1.171  1.00  0.00    -0.301 OA
HETATM   19  C17 UNL     1      -4.561   0.716   0.847  1.00  0.00     0.296 C 
HETATM   20  O2  UNL     1      -5.543   0.707   1.551  1.00  0.00    -0.259 OA
HETATM   21  C18 UNL     1      -4.558   1.565  -0.205  1.00  0.00     0.068 C 
HETATM   22  C19 UNL     1      -3.853   1.210  -1.285  1.00  0.00     0.005 C 
HETATM   23  C20 UNL     1      -1.262  -0.628   0.961  1.00  0.00     0.068 C 
HETATM   24  C21 UNL     1       0.146   1.289   3.175  1.00  0.00     0.059 C 
HETATM   25  C22 UNL     1       1.635   1.195   2.868  1.00  0.00    -0.027 C 
HETATM   26  C23 UNL     1       1.825   2.343   2.065  1.00  0.00     0.004 C 
HETATM   27  C24 UNL     1       1.336   1.964   0.673  1.00  0.00     0.276 C 
HETATM   28  O5  UNL     1      -1.170  -3.437  -1.278  1.00  0.00    -0.190 OA
ENDROOT
BRANCH   9  29
HETATM   29  O4  UNL     1       2.796  -2.248  -3.414  1.00  0.00    -0.326 OA
HETATM   30  C26 UNL     1       4.197  -2.247  -3.444  1.00  0.00     0.181 C 
ENDBRANCH   9  29
BRANCH  10  31
HETATM   31  O3  UNL     1       4.174  -0.899  -1.523  1.00  0.00    -0.326 OA
HETATM   32  C25 UNL     1       4.893  -0.259  -0.504  1.00  0.00     0.181 C 
ENDBRANCH  10  31
TORSDOF 2
