REMARK  1 active torsions:
REMARK  status: ('A' for Active; 'I' for Inactive)
REMARK    1  A    between atoms: C11_11  and  O2_16 
ROOT
HETATM    1  C1  UNL     1       1.891  -1.502  -0.361  1.00  0.00     0.133 A 
HETATM    2  C2  UNL     1       2.426  -2.747  -0.029  1.00  0.00     0.055 A 
HETATM    3  C3  UNL     1       1.578  -3.817   0.255  1.00  0.00     0.133 A 
HETATM    4  C4  UNL     1       0.195  -3.642   0.206  1.00  0.00     0.028 A 
HETATM    5  C5  UNL     1      -0.340  -2.398  -0.126  1.00  0.00     0.004 A 
HETATM    6  C6  UNL     1       0.508  -1.327  -0.410  1.00  0.00     0.026 A 
HETATM    7  C7  UNL     1      -1.666  -2.231  -0.172  1.00  0.00     0.000 C 
HETATM    8  C8  UNL     1      -2.186  -0.999  -0.136  1.00  0.00     0.002 C 
HETATM    9  C9  UNL     1      -1.380   0.065  -0.053  1.00  0.00     0.028 A 
HETATM   10  C10 UNL     1      -1.923   1.349  -0.016  1.00  0.00     0.155 A 
HETATM   11  C11 UNL     1      -1.083   2.459   0.070  1.00  0.00     0.145 A 
HETATM   12  C12 UNL     1       0.300   2.284   0.119  1.00  0.00     0.155 A 
HETATM   13  C13 UNL     1       0.843   1.000   0.081  1.00  0.00     0.030 A 
HETATM   14  C14 UNL     1       0.003  -0.110  -0.005  1.00  0.00     0.006 A 
HETATM   15  O1  UNL     1       1.117   3.362   0.203  1.00  0.00    -0.188 OA
HETATM   16  O3  UNL     1      -3.267   1.518  -0.063  1.00  0.00    -0.188 OA
HETATM   17  O4  UNL     1       2.097  -5.026   0.578  1.00  0.00    -0.190 OA
HETATM   18  O5  UNL     1       2.715  -0.462  -0.637  1.00  0.00    -0.190 OA
ENDROOT
BRANCH  11  19
HETATM   19  O2  UNL     1      -1.610   3.707   0.107  1.00  0.00    -0.324 OA
HETATM   20  C15 UNL     1      -0.765   4.822   0.194  1.00  0.00     0.182 C 
ENDBRANCH  11  19
TORSDOF 1
