REMARK  2 active torsions:
REMARK  status: ('A' for Active; 'I' for Inactive)
REMARK    1  A    between atoms: C8_9  and  C10_11 
REMARK    2  A    between atoms: C13_15  and  O3_18 
ROOT
HETATM    1  C1  UNL     1      -3.839   0.600  -1.618  1.00  0.00     0.133 A 
HETATM    2  C2  UNL     1      -3.839  -0.737  -1.618  1.00  0.00     0.027 A 
HETATM    3  C3  UNL     1      -2.681  -1.405  -1.618  1.00  0.00    -0.000 A 
HETATM    4  C4  UNL     1      -1.523  -0.737  -1.618  1.00  0.00     0.001 A 
HETATM    5  C5  UNL     1      -1.523   0.600  -1.618  1.00  0.00     0.092 A 
HETATM    6  C6  UNL     1      -2.681   1.268  -1.618  1.00  0.00     0.051 A 
HETATM    7  O1  UNL     1      -0.404   1.364  -1.630  1.00  0.00    -0.331 OA
HETATM    8  C7  UNL     1       0.644   0.702  -2.286  1.00  0.00     0.153 C 
HETATM    9  C8  UNL     1       0.934  -0.562  -1.498  1.00  0.00     0.059 C 
HETATM   10  C9  UNL     1      -0.245  -1.517  -1.631  1.00  0.00     0.035 C 
HETATM   11  O4  UNL     1      -5.012   1.278  -1.618  1.00  0.00    -0.190 OA
ENDROOT
BRANCH   9  12
HETATM   12  C10 UNL     1       1.137  -0.217  -0.056  1.00  0.00     0.006 A 
HETATM   13  C11 UNL     1       2.348  -0.515   0.569  1.00  0.00     0.129 A 
HETATM   14  O2  UNL     1       3.340  -1.118  -0.130  1.00  0.00    -0.190 OA
HETATM   15  C12 UNL     1       2.537  -0.194   1.913  1.00  0.00     0.051 A 
HETATM   16  C13 UNL     1       1.516   0.427   2.632  1.00  0.00     0.096 A 
HETATM   17  C14 UNL     1       0.305   0.726   2.007  1.00  0.00     0.024 A 
HETATM   18  C15 UNL     1       0.116   0.404   0.664  1.00  0.00    -0.000 A 
BRANCH  16  19
HETATM   19  O3  UNL     1       1.700   0.740   3.938  1.00  0.00    -0.328 OA
HETATM   20  C16 UNL     1       2.917   0.439   4.566  1.00  0.00     0.181 C 
ENDBRANCH  16  19
ENDBRANCH   9  12
TORSDOF 2
