REMARK  0 active torsions:
REMARK  status: ('A' for Active; 'I' for Inactive)
ROOT
HETATM    1  C1  UNL     1      -3.140   1.470  -0.321  1.00  0.00     0.172 C 
HETATM    2  C2  UNL     1      -3.055   0.091  -0.927  1.00  0.00     0.070 C 
HETATM    3  C3  UNL     1      -2.229  -0.535   0.044  1.00  0.00     0.011 C 
HETATM    4  C4  UNL     1      -0.841  -0.028  -0.321  1.00  0.00     0.019 C 
HETATM    5  C5  UNL     1      -0.841   1.470  -0.321  1.00  0.00    -0.041 C 
HETATM    6  C6  UNL     1      -1.982   2.166  -0.321  1.00  0.00     0.029 C 
HETATM    7  C7  UNL     1       0.490   2.154  -0.334  1.00  0.00     0.026 C 
HETATM    8  C8  UNL     1       1.583   1.133  -0.625  1.00  0.00     0.026 C 
HETATM    9  C9  UNL     1       1.520   0.033   0.388  1.00  0.00    -0.051 C 
HETATM   10  C10 UNL     1       0.170  -0.535   0.698  1.00  0.00     0.025 C 
HETATM   11  C11 UNL     1       2.623  -0.424   0.990  1.00  0.00    -0.051 C 
HETATM   12  C12 UNL     1       3.957   0.167   0.656  1.00  0.00     0.026 C 
HETATM   13  C13 UNL     1       2.524  -1.526   1.998  1.00  0.00     0.026 C 
HETATM   14  C14 UNL     1      -0.464  -0.535  -1.707  1.00  0.00     0.004 C 
HETATM   15  C15 UNL     1      -2.338  -2.054   0.043  1.00  0.00     0.001 C 
HETATM   16  O1  UNL     1      -4.167   1.919   0.130  1.00  0.00    -0.291 OA
ENDROOT
TORSDOF 0
