REMARK  6 active torsions:
REMARK  status: ('A' for Active; 'I' for Inactive)
REMARK    1  A    between atoms: C5_5  and  O2_7 
REMARK    2  A    between atoms: O2_7  and  C6_8 
REMARK    3  A    between atoms: C6_8  and  C7_9 
REMARK    4  A    between atoms: C11_13  and  O4_15 
REMARK    5  A    between atoms: O4_15  and  C12_16 
REMARK    6  A    between atoms: C12_16  and  C13_17 
ROOT
HETATM    1  C12 UNL     1       1.666   3.155  -0.377  1.00  0.00     0.230 C 
HETATM    2  C19 UNL     1       2.329   4.433  -0.675  1.00  0.00     0.108 C 
HETATM    3  N1  UNL     1       2.851   5.439  -0.910  1.00  0.00    -0.193 NA
ENDROOT
BRANCH   1   4
HETATM    4  O4  UNL     1       2.632   2.190  -0.059  1.00  0.00    -0.312 OA
BRANCH   4   5
HETATM    5  C11 UNL     1       2.238   0.883   0.263  1.00  0.00     0.271 C 
HETATM    6  C10 UNL     1       2.721   0.527   1.661  1.00  0.00     0.241 C 
HETATM    7  C9  UNL     1       2.259  -0.882   2.007  1.00  0.00     0.220 C 
HETATM    8  O5  UNL     1       4.121   0.583   1.701  1.00  0.00    -0.215 OA
HETATM    9  C8  UNL     1       2.632  -1.832   0.876  1.00  0.00     0.215 C 
HETATM   10  O6  UNL     1       0.868  -0.888   2.181  1.00  0.00    -0.218 OA
HETATM   11  C7  UNL     1       2.162  -1.250  -0.451  1.00  0.00     0.180 C 
HETATM   12  O7  UNL     1       4.024  -1.997   0.846  1.00  0.00    -0.218 OA
HETATM   13  O3  UNL     1       2.820  -0.026  -0.631  1.00  0.00    -0.326 OA
BRANCH  11  14
HETATM   14  C6  UNL     1       0.655  -1.030  -0.416  1.00  0.00     0.177 C 
BRANCH  14  15
HETATM   15  O2  UNL     1       0.050  -1.770  -1.442  1.00  0.00    -0.326 OA
BRANCH  15  16
HETATM   16  C5  UNL     1      -1.341  -1.726  -1.611  1.00  0.00     0.270 C 
HETATM   17  C4  UNL     1      -1.923  -3.126  -1.481  1.00  0.00     0.241 C 
HETATM   18  C3  UNL     1      -3.436  -3.057  -1.636  1.00  0.00     0.220 C 
HETATM   19  O8  UNL     1      -1.386  -3.950  -2.480  1.00  0.00    -0.215 OA
HETATM   20  C2  UNL     1      -3.782  -2.271  -2.894  1.00  0.00     0.215 C 
HETATM   21  O9  UNL     1      -3.991  -2.417  -0.519  1.00  0.00    -0.218 OA
HETATM   22  C1  UNL     1      -3.020  -0.952  -2.894  1.00  0.00     0.181 C 
HETATM   23  O10 UNL     1      -5.160  -2.014  -2.920  1.00  0.00    -0.218 OA
HETATM   24  O1  UNL     1      -1.651  -1.255  -2.894  1.00  0.00    -0.326 OA
ENDBRANCH  15  16
ENDBRANCH  14  15
ENDBRANCH  11  14
ENDBRANCH   4   5
ENDBRANCH   1   4
BRANCH   1  25
HETATM   25  C13 UNL     1       0.740   3.333   0.786  1.00  0.00     0.019 A 
HETATM   26  C14 UNL     1      -0.624   3.083   0.635  1.00  0.00    -0.001 A 
HETATM   27  C15 UNL     1      -1.488   3.250   1.718  1.00  0.00    -0.000 A 
HETATM   28  C16 UNL     1      -0.987   3.666   2.951  1.00  0.00    -0.000 A 
HETATM   29  C17 UNL     1       0.377   3.916   3.102  1.00  0.00    -0.000 A 
HETATM   30  C18 UNL     1       1.240   3.750   2.019  1.00  0.00    -0.001 A 
ENDBRANCH   1  25
TORSDOF 6
