REMARK  5 active torsions:
REMARK  status: ('A' for Active; 'I' for Inactive)
REMARK    1  A    between atoms: C4_4  and  O5_21 
REMARK    2  A    between atoms: C9_9  and  O1_11 
REMARK    3  A    between atoms: O1_11  and  C11_12 
REMARK    4  A    between atoms: O5_21  and  C17_22 
REMARK    5  A    between atoms: C17_22  and  C18_23 
ROOT
HETATM    1  C1  UNL     1      -0.145  -1.525   1.186  1.00  0.00     0.143 A 
HETATM    2  C2  UNL     1       1.272  -1.145   1.186  1.00  0.00     0.120 A 
HETATM    3  C3  UNL     1       1.655   0.172   0.567  1.00  0.00     0.060 C 
HETATM    4  C4  UNL     1       0.576   1.232   0.743  1.00  0.00     0.134 C 
HETATM    5  C5  UNL     1      -0.604   0.910  -0.164  1.00  0.00     0.087 A 
HETATM    6  C6  UNL     1      -0.835  -0.595  -0.182  1.00  0.00     0.152 A 
HETATM    7  C7  UNL     1      -2.259  -0.886   0.177  1.00  0.00    -0.002 C 
HETATM    8  C8  UNL     1      -2.673  -2.132   0.428  1.00  0.00    -0.018 C 
HETATM    9  C9  UNL     1      -1.733  -3.295   0.361  1.00  0.00     0.145 C 
HETATM   10  C10 UNL     1      -0.488  -2.990   1.186  1.00  0.00     0.067 C 
HETATM   11  C13 UNL     1      -4.108  -2.370   0.783  1.00  0.00     0.029 C 
HETATM   12  O3  UNL     1      -0.606  -0.957  -1.517  1.00  0.00    -0.296 OA
HETATM   13  C14 UNL     1      -0.257   0.130  -2.352  1.00  0.00     0.292 A 
HETATM   14  C15 UNL     1      -0.250   1.240  -1.580  1.00  0.00     0.046 A 
HETATM   15  C16 UNL     1       0.036   2.468  -2.023  1.00  0.00     0.001 C 
HETATM   16  O4  UNL     1      -0.012   0.077  -3.533  1.00  0.00    -0.259 OA
HETATM   17  O7  UNL     1       0.470  -1.046   2.391  1.00  0.00    -0.357 OA
HETATM   18  C21 UNL     1       2.543  -1.833   0.764  1.00  0.00     0.032 C 
ENDROOT
BRANCH   4  19
HETATM   19  O5  UNL     1       1.097   2.489   0.404  1.00  0.00    -0.304 OA
BRANCH  19  20
HETATM   20  C17 UNL     1       1.123   3.470   1.313  1.00  0.00     0.271 C 
HETATM   21  O6  UNL     1       0.699   3.272   2.427  1.00  0.00    -0.264 OA
BRANCH  20  22
HETATM   22  C18 UNL     1       1.683   4.823   0.948  1.00  0.00     0.086 C 
HETATM   23  C19 UNL     1       2.147   4.806  -0.503  1.00  0.00     0.010 C 
HETATM   24  C20 UNL     1       0.604   5.882   1.123  1.00  0.00     0.010 C 
ENDBRANCH  20  22
ENDBRANCH  19  20
ENDBRANCH   4  19
BRANCH   9  25
HETATM   25  O1  UNL     1      -1.365  -3.524  -0.972  1.00  0.00    -0.300 OA
BRANCH  25  26
HETATM   26  C11 UNL     1      -0.525  -4.521  -1.273  1.00  0.00     0.273 C 
HETATM   27  C12 UNL     1      -0.130  -4.766  -2.709  1.00  0.00     0.106 C 
HETATM   28  O2  UNL     1      -0.083  -5.224  -0.396  1.00  0.00    -0.264 OA
ENDBRANCH  25  26
ENDBRANCH   9  25
TORSDOF 5
