REMARK  3 active torsions:
REMARK  status: ('A' for Active; 'I' for Inactive)
REMARK    1  A    between atoms: C7_9  and  O4_14 
REMARK    2  A    between atoms: O4_14  and  C11_15 
REMARK    3  A    between atoms: C12_17  and  C16_24 
ROOT
HETATM    1  C1  UNL     1       1.581   1.426   0.347  1.00  0.00     0.017 C 
HETATM    2  C2  UNL     1       1.581  -0.097   0.347  1.00  0.00     0.058 C 
HETATM    3  C3  UNL     1       2.646  -0.605   1.310  1.00  0.00     0.154 C 
HETATM    4  O1  UNL     1       3.853   0.026   0.976  1.00  0.00    -0.302 OA
HETATM    5  C4  UNL     1       3.760   1.216   1.447  1.00  0.00     0.271 C 
HETATM    6  C5  UNL     1       3.017   1.933   0.347  1.00  0.00     0.087 C 
HETATM    7  C6  UNL     1       3.035   3.434   0.604  1.00  0.00     0.010 C 
HETATM    8  O2  UNL     1       4.164   1.650   2.499  1.00  0.00    -0.264 OA
HETATM    9  C7  UNL     1       0.201  -0.466   0.875  1.00  0.00     0.126 C 
HETATM   10  C8  UNL     1      -0.081   0.664   1.902  1.00  0.00     0.177 C 
HETATM   11  C9  UNL     1       0.913   1.794   1.665  1.00  0.00     0.036 C 
HETATM   12  O3  UNL     1       0.072   0.168   3.204  1.00  0.00    -0.221 OA
HETATM   13  C10 UNL     1       0.218  -1.831   1.551  1.00  0.00     0.033 C 
ENDROOT
BRANCH   9  14
HETATM   14  O4  UNL     1      -0.773  -0.563  -0.129  1.00  0.00    -0.331 OA
BRANCH  14  15
HETATM   15  C11 UNL     1      -0.654  -1.538  -1.129  1.00  0.00     0.270 C 
HETATM   16  O5  UNL     1      -0.604  -0.927  -2.389  1.00  0.00    -0.326 OA
HETATM   17  C12 UNL     1      -1.632   0.026  -2.418  1.00  0.00     0.184 C 
HETATM   18  C13 UNL     1      -2.951  -0.727  -2.535  1.00  0.00     0.215 C 
HETATM   19  C14 UNL     1      -3.132  -1.623  -1.322  1.00  0.00     0.220 C 
HETATM   20  O8  UNL     1      -2.939  -1.511  -3.697  1.00  0.00    -0.218 OA
HETATM   21  C15 UNL     1      -1.872  -2.453  -1.111  1.00  0.00     0.241 C 
HETATM   22  O7  UNL     1      -3.366  -0.833  -0.188  1.00  0.00    -0.218 OA
HETATM   23  O6  UNL     1      -1.759  -3.401  -2.137  1.00  0.00    -0.215 OA
BRANCH  17  24
HETATM   24  C16 UNL     1      -1.615   0.847  -1.136  1.00  0.00     0.214 C 
HETATM   25  O9  UNL     1      -1.439   2.202  -1.450  1.00  0.00    -0.218 OA
ENDBRANCH  17  24
ENDBRANCH  14  15
ENDBRANCH   9  14
TORSDOF 3
