REMARK  5 active torsions:
REMARK  status: ('A' for Active; 'I' for Inactive)
REMARK    1  A    between atoms: C2_2  and  O6_32 
REMARK    2  A    between atoms: C10_11  and  C23_28 
REMARK    3  A    between atoms: C12_13  and  C19_21 
REMARK    4  A    between atoms: N2_15  and  C14_16 
REMARK    5  A    between atoms: C23_28  and  O5_30 
ROOT
HETATM    1  C1  UNL     1      -4.182  -0.086  -0.751  1.00  0.00     0.024 A 
HETATM    2  C2  UNL     1      -4.182  -1.423  -0.751  1.00  0.00     0.096 A 
HETATM    3  C3  UNL     1      -3.024  -2.091  -0.776  1.00  0.00     0.041 A 
HETATM    4  C4  UNL     1      -1.866  -1.422  -0.776  1.00  0.00     0.054 A 
HETATM    5  C5  UNL     1      -1.866  -0.085  -0.776  1.00  0.00    -0.004 A 
HETATM    6  C6  UNL     1      -3.024   0.583  -0.763  1.00  0.00    -0.001 A 
HETATM    7  C7  UNL     1      -0.469   0.451  -0.776  1.00  0.00     0.071 A 
HETATM    8  C8  UNL     1       0.405  -0.796  -0.780  1.00  0.00     0.108 A 
HETATM    9  N1  UNL     1      -0.684  -1.876  -0.787  1.00  0.00    -0.347 N 
HETATM   10  C9  UNL     1      -0.382  -3.315  -0.805  1.00  0.00     0.126 C 
HETATM   11  C10 UNL     1       1.213  -0.854   0.510  1.00  0.00     0.135 A 
HETATM   12  C11 UNL     1       2.159   1.611  -0.091  1.00  0.00     0.101 C 
HETATM   13  C12 UNL     1       0.843   2.293   0.260  1.00  0.00     0.040 C 
HETATM   14  C13 UNL     1      -0.227   1.236   0.506  1.00  0.00     0.225 C 
HETATM   15  N2  UNL     1       0.275   0.253   1.427  1.00  0.00     0.134 N 
HETATM   16  C14 UNL     1       1.227   0.903   2.286  1.00  0.00     0.249 A 
HETATM   17  C15 UNL     1       1.058   2.557   2.709  1.00  0.00     0.064 A 
HETATM   18  C16 UNL     1       1.023   3.118   1.496  1.00  0.00     0.007 C 
HETATM   19  C17 UNL     1       0.996  -0.670   0.593  1.00  0.00     0.220 A 
HETATM   20  C18 UNL     1      -0.229   1.243  -2.055  1.00  0.00     0.042 C 
HETATM   21  C21 UNL     1       3.308   2.041   0.786  1.00  0.00     0.272 C 
HETATM   22  O1  UNL     1       4.336   2.433   0.287  1.00  0.00    -0.264 OA
HETATM   23  O2  UNL     1       3.190   1.987   2.118  1.00  0.00    -0.302 OA
HETATM   24  C22 UNL     1       1.998   1.532   2.698  1.00  0.00     0.157 A 
HETATM   25  O3  UNL     1       0.441  -0.913   1.679  1.00  0.00     0.000 OA
ENDROOT
BRANCH  11  26
HETATM   26  C23 UNL     1       2.142  -2.005   0.808  1.00  0.00     0.275 C 
HETATM   27  O4  UNL     1       2.770  -2.023   1.840  1.00  0.00    -0.264 OA
BRANCH  26  28
HETATM   28  O5  UNL     1       2.271  -3.006  -0.070  1.00  0.00    -0.299 OA
HETATM   29  C24 UNL     1       1.542  -2.986  -1.268  1.00  0.00     0.184 C 
ENDBRANCH  26  28
ENDBRANCH  11  26
BRANCH  13  30
HETATM   30  C19 UNL     1       0.413   3.191  -0.892  1.00  0.00     0.002 C 
HETATM   31  C20 UNL     1       1.630   3.559  -1.731  1.00  0.00     0.000 C 
ENDBRANCH  13  30
BRANCH   2  32
HETATM   32  O6  UNL     1      -5.355  -2.100  -0.726  1.00  0.00    -0.328 OA
HETATM   33  C25 UNL     1      -5.357  -3.501  -0.778  1.00  0.00     0.181 C 
ENDBRANCH   2  32
TORSDOF 5
