REMARK  1 active torsions:
REMARK  status: ('A' for Active; 'I' for Inactive)
REMARK    1  A    between atoms: C8_8  and  C12_12 
ROOT
HETATM    1  C1  UNL     1      -0.992   0.256   0.606  1.00  0.00     0.001 C 
HETATM    2  C2  UNL     1      -0.850  -1.106  -0.116  1.00  0.00     0.004 C 
HETATM    3  C3  UNL     1       0.682  -1.031   0.121  1.00  0.00     0.018 C 
HETATM    4  C4  UNL     1       1.534  -1.492  -1.046  1.00  0.00    -0.044 C 
HETATM    5  C5  UNL     1       2.711  -2.402  -0.734  1.00  0.00     0.027 C 
HETATM    6  C6  UNL     1       3.993  -1.611  -0.414  1.00  0.00     0.030 C 
HETATM    7  C7  UNL     1       3.642  -0.554   0.599  1.00  0.00    -0.032 C 
HETATM    8  C8  UNL     1       3.401   0.738   0.313  1.00  0.00    -0.016 C 
HETATM    9  C9  UNL     1       2.710   1.580   1.359  1.00  0.00     0.024 C 
HETATM   10  C10 UNL     1       1.286   1.055   1.634  1.00  0.00     0.005 C 
HETATM   11  C11 UNL     1       0.539   0.498   0.410  1.00  0.00     0.004 C 
HETATM   12  C13 UNL     1       1.305  -1.095  -2.308  1.00  0.00    -0.009 C 
HETATM   13  C14 UNL     1      -1.863   1.259  -0.161  1.00  0.00     0.000 C 
HETATM   14  C15 UNL     1      -1.479   0.086   2.051  1.00  0.00     0.000 C 
ENDROOT
BRANCH   8  15
HETATM   15  C12 UNL     1       3.638   1.329  -1.060  1.00  0.00     0.204 C 
HETATM   16  O1  UNL     1       3.056   2.612  -1.255  1.00  0.00    -0.216 OA
ENDBRANCH   8  15
TORSDOF 1
