REMARK  1 active torsions:
REMARK  status: ('A' for Active; 'I' for Inactive)
REMARK    1  A    between atoms: C4_4  and  C5_7 
ROOT
HETATM    1  C1  UNL     1      -2.329   1.058   0.893  1.00  0.00     0.037 C 
HETATM    2  C2  UNL     1      -1.983  -0.197   0.574  1.00  0.00    -0.017 C 
HETATM    3  C3  UNL     1      -0.778  -0.615  -0.236  1.00  0.00     0.043 C 
HETATM    4  C4  UNL     1       0.481   0.251  -0.057  1.00  0.00     0.084 C 
HETATM    5  S1  UNL     1       0.191   1.931  -0.701  1.00  0.00    -0.074 SA
HETATM    6  S2  UNL     1      -1.396   2.535   0.399  1.00  0.00    -0.055 SA
ENDROOT
BRANCH   4   7
HETATM    7  C5  UNL     1       1.642  -0.330  -0.829  1.00  0.00    -0.015 C 
HETATM    8  C6  UNL     1       2.804  -0.692  -0.267  1.00  0.00    -0.004 C 
ENDBRANCH   4   7
TORSDOF 1
