REMARK  1 active torsions:
REMARK  status: ('A' for Active; 'I' for Inactive)
REMARK    1  A    between atoms: C1_4  and  C4_7 
ROOT
HETATM    1  S1  UNL     1       2.843  -0.185  -0.920  1.00  0.00    -0.066 SA
HETATM    2  S2  UNL     1       2.348   1.698  -0.358  1.00  0.00    -0.018 SA
HETATM    3  S3  UNL     1       0.622   1.580   0.698  1.00  0.00    -0.045 SA
HETATM    4  C1  UNL     1      -0.313   0.120   0.114  1.00  0.00     0.033 C 
HETATM    5  C2  UNL     1       0.365  -1.031  -0.061  1.00  0.00    -0.007 C 
HETATM    6  C3  UNL     1       1.841  -1.227   0.189  1.00  0.00     0.096 C 
ENDROOT
BRANCH   4   7
HETATM    7  C4  UNL     1      -1.634   0.200  -0.135  1.00  0.00     0.007 C 
HETATM    8  C5  UNL     1      -2.405   1.291  -0.000  1.00  0.00     0.001 C 
ENDBRANCH   4   7
TORSDOF 1
