REMARK  2 active torsions:
REMARK  status: ('A' for Active; 'I' for Inactive)
REMARK    1  A    between atoms: C3_3  and  C18_24 
REMARK    2  A    between atoms: C12_14  and  C16_19 
ROOT
HETATM    1  C1  UNL     1      -3.768   0.556   0.169  1.00  0.00     0.024 A 
HETATM    2  C2  UNL     1      -3.638  -0.648  -0.398  1.00  0.00     0.136 A 
HETATM    3  C3  UNL     1      -2.467  -0.930  -1.005  1.00  0.00     0.090 A 
HETATM    4  C4  UNL     1      -1.436  -0.042  -1.012  1.00  0.00     0.110 A 
HETATM    5  C5  UNL     1      -1.625   1.188  -0.453  1.00  0.00     0.083 A 
HETATM    6  C6  UNL     1      -2.803   1.486   0.150  1.00  0.00    -0.013 A 
HETATM    7  C7  UNL     1      -3.155   2.807   0.819  1.00  0.00     0.031 C 
HETATM    8  C8  UNL     1      -0.631   2.135  -0.497  1.00  0.00     0.302 C 
HETATM    9  O1  UNL     1       0.588   1.958  -1.095  1.00  0.00    -0.271 OA
HETATM   10  C9  UNL     1       1.302   0.934  -0.544  1.00  0.00     0.124 A 
HETATM   11  C10 UNL     1       0.874  -0.311  -0.806  1.00  0.00     0.119 A 
HETATM   12  O2  UNL     1      -0.241  -0.405  -1.607  1.00  0.00    -0.305 OA
HETATM   13  C11 UNL     1       1.567  -1.370  -0.323  1.00  0.00     0.011 A 
HETATM   14  C12 UNL     1       2.639  -1.174   0.488  1.00  0.00     0.087 A 
HETATM   15  C13 UNL     1       3.050   0.088   0.759  1.00  0.00     0.135 A 
HETATM   16  C14 UNL     1       2.383   1.134   0.230  1.00  0.00     0.029 A 
HETATM   17  C15 UNL     1       2.862   2.541   0.543  1.00  0.00     0.035 C 
HETATM   18  O3  UNL     1       4.102   0.381   1.580  1.00  0.00    -0.190 OA
HETATM   19  C17 UNL     1       1.120  -2.754  -0.765  1.00  0.00     0.033 C 
HETATM   20  O6  UNL     1      -0.785   3.227   0.009  1.00  0.00    -0.259 OA
HETATM   21  O8  UNL     1      -4.702  -1.498  -0.341  1.00  0.00    -0.190 OA
ENDROOT
BRANCH  14  22
HETATM   22  C16 UNL     1       3.329  -2.231   1.024  1.00  0.00     0.213 C 
HETATM   23  O4  UNL     1       4.437  -2.121   1.790  1.00  0.00    -0.644 OA
HETATM   24  O5  UNL     1       2.994  -3.385   0.890  1.00  0.00    -0.644 OA
ENDBRANCH  14  22
BRANCH   3  25
HETATM   25  C18 UNL     1      -2.358  -2.142  -1.623  1.00  0.00     0.238 C 
HETATM   26  O7  UNL     1      -3.193  -3.014  -1.657  1.00  0.00    -0.283 OA
ENDBRANCH   3  25
TORSDOF 2
