REMARK  2 active torsions:
REMARK  status: ('A' for Active; 'I' for Inactive)
REMARK    1  A    between atoms: C7_9  and  C25_34 
REMARK    2  A    between atoms: C18_22  and  C19_24 
ROOT
HETATM    1  C1  UNL     1       2.472   1.970   2.648  1.00  0.00     0.055 A 
HETATM    2  C2  UNL     1       2.234   0.646   2.632  1.00  0.00     0.132 A 
HETATM    3  C3  UNL     1       0.955   0.276   2.491  1.00  0.00     0.041 A 
HETATM    4  C4  UNL     1      -0.038   1.163   2.377  1.00  0.00     0.095 A 
HETATM    5  C5  UNL     1       0.229   2.475   2.373  1.00  0.00     0.051 A 
HETATM    6  C6  UNL     1       1.500   2.893   2.512  1.00  0.00     0.135 A 
HETATM    7  O1  UNL     1       1.793   4.222   2.506  1.00  0.00    -0.190 OA
HETATM    8  O2  UNL     1      -1.152   0.651   2.264  1.00  0.00    -0.328 OA
HETATM    9  C7  UNL     1      -1.087  -0.773   2.409  1.00  0.00     0.160 C 
HETATM   10  C8  UNL     1       0.412  -1.109   2.346  1.00  0.00     0.152 C 
HETATM   11  C9  UNL     1       0.919  -2.171   3.300  1.00  0.00     0.286 C 
HETATM   12  O3  UNL     1       1.176  -3.373   2.603  1.00  0.00    -0.276 OA
HETATM   13  C10 UNL     1       1.292  -3.068   1.416  1.00  0.00     0.104 A 
HETATM   14  C11 UNL     1       0.906  -1.822   1.115  1.00  0.00     0.038 A 
HETATM   15  C12 UNL     1       0.978  -1.333  -0.134  1.00  0.00     0.091 A 
HETATM   16  C13 UNL     1       1.483  -2.148  -1.089  1.00  0.00     0.028 A 
HETATM   17  C14 UNL     1       1.871  -3.411  -0.805  1.00  0.00     0.131 A 
HETATM   18  C15 UNL     1       1.774  -3.865   0.458  1.00  0.00     0.052 A 
HETATM   19  O4  UNL     1       2.384  -4.225  -1.769  1.00  0.00    -0.190 OA
HETATM   20  C16 UNL     1       1.603  -1.633  -2.511  1.00  0.00     0.066 C 
HETATM   21  C17 UNL     1       0.760  -0.378  -2.697  1.00  0.00     0.188 C 
HETATM   22  C18 UNL     1       1.032   0.565  -1.543  1.00  0.00     0.174 C 
HETATM   23  O5  UNL     1       0.594  -0.038  -0.358  1.00  0.00    -0.327 OA
HETATM   24  O8  UNL     1       1.092   0.279  -3.896  1.00  0.00    -0.220 OA
HETATM   25  O9  UNL     1       1.375  -1.935   4.393  1.00  0.00    -0.263 OA
HETATM   26  O12 UNL     1       3.219  -0.280   2.771  1.00  0.00    -0.190 OA
ENDROOT
BRANCH   9  27
HETATM   27  C25 UNL     1      -1.911  -1.543   1.403  1.00  0.00     0.008 A 
HETATM   28  C26 UNL     1      -2.229  -2.830   1.621  1.00  0.00     0.000 A 
HETATM   29  C27 UNL     1      -2.925  -3.523   0.708  1.00  0.00     0.029 A 
HETATM   30  C28 UNL     1      -3.314  -2.958  -0.447  1.00  0.00     0.156 A 
HETATM   31  C29 UNL     1      -3.005  -1.669  -0.675  1.00  0.00     0.156 A 
HETATM   32  O11 UNL     1      -4.008  -3.657  -1.384  1.00  0.00    -0.188 OA
HETATM   33  C30 UNL     1      -2.322  -0.983   0.254  1.00  0.00     0.028 A 
HETATM   34  O10 UNL     1      -3.376  -1.070  -1.838  1.00  0.00    -0.188 OA
ENDBRANCH   9  27
BRANCH  22  35
HETATM   35  C19 UNL     1       0.339   1.905  -1.712  1.00  0.00     0.010 A 
HETATM   36  C20 UNL     1       1.010   3.060  -1.563  1.00  0.00     0.028 A 
HETATM   37  C21 UNL     1       0.416   4.258  -1.695  1.00  0.00     0.156 A 
HETATM   38  C22 UNL     1      -0.896   4.314  -1.986  1.00  0.00     0.156 A 
HETATM   39  O7  UNL     1       1.112   5.417  -1.539  1.00  0.00    -0.188 OA
HETATM   40  C23 UNL     1      -1.577   3.167  -2.135  1.00  0.00     0.029 A 
HETATM   41  O6  UNL     1      -1.516   5.516  -2.117  1.00  0.00    -0.188 OA
HETATM   42  C24 UNL     1      -0.971   1.980  -2.003  1.00  0.00     0.000 A 
ENDBRANCH  22  35
TORSDOF 2
