REMARK  0 active torsions:
REMARK  status: ('A' for Active; 'I' for Inactive)
ROOT
HETATM    1  C1  UNL     1      -5.066  -0.957  -0.090  1.00  0.00     0.304 A 
HETATM    2  O1  UNL     1      -4.125  -2.032  -0.125  1.00  0.00    -0.300 OA
HETATM    3  C2  UNL     1      -3.003  -1.534  -0.129  1.00  0.00     0.119 A 
HETATM    4  C3  UNL     1      -3.058  -0.200  -0.092  1.00  0.00     0.119 A 
HETATM    5  O2  UNL     1      -4.221   0.196  -0.069  1.00  0.00    -0.300 OA
HETATM    6  C4  UNL     1      -1.941   0.536  -0.095  1.00  0.00     0.022 A 
HETATM    7  C5  UNL     1      -0.741  -0.080  -0.125  1.00  0.00    -0.017 A 
HETATM    8  C6  UNL     1      -0.692  -1.432  -0.182  1.00  0.00     0.009 A 
HETATM    9  C7  UNL     1      -1.824  -2.163  -0.174  1.00  0.00     0.024 A 
HETATM   10  C8  UNL     1       0.631  -2.170  -0.260  1.00  0.00     0.276 C 
HETATM   11  N1  UNL     1       1.764  -1.277  -0.466  1.00  0.00     0.140 N 
HETATM   12  C9  UNL     1       1.664  -0.165   0.464  1.00  0.00     0.230 C 
HETATM   13  C10 UNL     1       0.571   0.696  -0.196  1.00  0.00     0.069 C 
HETATM   14  C11 UNL     1       0.567   2.099   0.361  1.00  0.00    -0.023 C 
HETATM   15  C12 UNL     1       1.553   2.601   1.120  1.00  0.00     0.002 C 
HETATM   16  C13 UNL     1       2.765   1.814   1.538  1.00  0.00     0.176 C 
HETATM   17  C14 UNL     1       2.985   0.603   0.635  1.00  0.00     0.071 C 
HETATM   18  O3  UNL     1       2.600   1.398   2.881  1.00  0.00    -0.219 OA
HETATM   19  C15 UNL     1       1.005   0.666  -1.676  1.00  0.00     0.045 C 
HETATM   20  C16 UNL     1       1.753  -0.675  -1.795  1.00  0.00     0.251 C 
ENDROOT
TORSDOF 0
