REMARK  7 active torsions:
REMARK  status: ('A' for Active; 'I' for Inactive)
REMARK    1  A    between atoms: C1_1  and  C22_26 
REMARK    2  A    between atoms: C4_4  and  C20_22 
REMARK    3  A    between atoms: C20_22  and  O1_23 
REMARK    4  A    between atoms: C27_31  and  O3_32 
REMARK    5  A    between atoms: C31_37  and  C42_49 
REMARK    6  A    between atoms: C39_46  and  C40_47 
REMARK    7  A    between atoms: C42_49  and  O4_50 
ROOT
HETATM    1  C22 UNL     1       2.131  -0.427   0.817  1.00  0.00     0.007 A 
HETATM    2  C23 UNL     1       2.504   0.384  -0.176  1.00  0.00     0.017 A 
HETATM    3  C24 UNL     1       1.479   1.046  -0.716  1.00  0.00     0.081 A 
HETATM    4  C25 UNL     1       0.222   0.890  -0.282  1.00  0.00     0.017 A 
HETATM    5  C26 UNL     1      -0.061   0.076   0.749  1.00  0.00     0.025 A 
HETATM    6  C27 UNL     1       0.933  -0.613   1.355  1.00  0.00     0.091 A 
HETATM    7  C29 UNL     1      -0.549   1.641  -1.090  1.00  0.00    -0.007 A 
HETATM    8  C30 UNL     1       0.274   2.220  -1.990  1.00  0.00     0.064 A 
HETATM    9  N3  UNL     1       1.454   1.841  -1.699  1.00  0.00    -0.250 NA
HETATM   10  C31 UNL     1      -0.092   3.114  -3.163  1.00  0.00     0.117 C 
HETATM   11  C32 UNL     1      -1.163   2.501  -4.109  1.00  0.00     0.048 C 
HETATM   12  C33 UNL     1      -2.566   2.424  -3.472  1.00  0.00     0.258 C 
HETATM   13  C34 UNL     1      -2.738   1.405  -2.336  1.00  0.00     0.041 C 
HETATM   14  C35 UNL     1      -2.045   1.763  -1.018  1.00  0.00     0.030 C 
HETATM   15  N4  UNL     1      -3.015   3.755  -3.071  1.00  0.00     0.335 N 
HETATM   16  C36 UNL     1      -2.021   4.771  -3.407  1.00  0.00     0.257 C 
HETATM   17  C37 UNL     1      -0.729   4.436  -2.640  1.00  0.00     0.051 C 
HETATM   18  C38 UNL     1      -1.791   4.765  -4.929  1.00  0.00     0.036 C 
HETATM   19  C39 UNL     1      -1.257   3.390  -5.377  1.00  0.00     0.005 C 
ENDROOT
BRANCH   1  20
HETATM   20  C1  UNL     1       2.803  -1.475   1.579  1.00  0.00     0.065 C 
HETATM   21  C2  UNL     1       2.708  -0.786   3.200  1.00  0.00     0.015 C 
HETATM   22  C3  UNL     1       1.362  -0.550   4.313  1.00  0.00     0.032 C 
HETATM   23  C4  UNL     1      -0.241  -0.474   3.945  1.00  0.00     0.126 C 
HETATM   24  C16 UNL     1       1.347  -1.494   5.521  1.00  0.00    -0.015 C 
HETATM   25  C5  UNL     1      -0.977  -1.904   3.564  1.00  0.00     0.251 C 
HETATM   26  C6  UNL     1      -0.964  -2.689   1.980  1.00  0.00     0.008 C 
HETATM   27  N2  UNL     1      -0.612  -2.873   4.610  1.00  0.00     0.146 N 
HETATM   28  C7  UNL     1       0.334  -2.961   0.849  1.00  0.00     0.013 A 
HETATM   29  C8  UNL     1       1.698  -2.576   0.701  1.00  0.00     0.062 A 
HETATM   30  C10 UNL     1       0.103  -3.752  -0.217  1.00  0.00     0.018 A 
HETATM   31  N1  UNL     1       2.112  -3.135  -0.366  1.00  0.00    -0.250 NA
HETATM   32  C9  UNL     1       1.226  -3.831  -0.940  1.00  0.00     0.081 A 
HETATM   33  C14 UNL     1       1.300  -4.539  -2.072  1.00  0.00     0.019 A 
HETATM   34  C13 UNL     1       0.194  -5.188  -2.475  1.00  0.00     0.002 A 
HETATM   35  C12 UNL     1      -0.940  -5.118  -1.755  1.00  0.00     0.000 A 
HETATM   36  C11 UNL     1      -0.998  -4.400  -0.620  1.00  0.00     0.002 A 
HETATM   37  C15 UNL     1       0.113  -2.372   5.791  1.00  0.00     0.273 C 
HETATM   38  C19 UNL     1      -1.761  -3.667   5.028  1.00  0.00     0.286 C 
HETATM   39  C17 UNL     1       2.417  -1.494   6.341  1.00  0.00    -0.032 C 
HETATM   40  C18 UNL     1       2.615  -2.292   7.603  1.00  0.00     0.030 C 
BRANCH  23  41
HETATM   41  C20 UNL     1      -1.036   0.335   4.992  1.00  0.00     0.274 C 
HETATM   42  O2  UNL     1      -1.864  -0.175   5.715  1.00  0.00    -0.264 OA
BRANCH  41  43
HETATM   43  O1  UNL     1      -0.754   1.671   5.101  1.00  0.00    -0.299 OA
HETATM   44  C21 UNL     1      -0.206   2.428   4.046  1.00  0.00     0.184 C 
ENDBRANCH  41  43
ENDBRANCH  23  41
ENDBRANCH   1  20
BRANCH   6  45
HETATM   45  O3  UNL     1       0.829  -1.574   2.412  1.00  0.00    -0.328 OA
HETATM   46  C28 UNL     1       1.525  -2.894   2.893  1.00  0.00     0.181 C 
ENDBRANCH   6  45
BRANCH  10  47
HETATM   47  C42 UNL     1       1.236   3.455  -3.895  1.00  0.00     0.276 C 
HETATM   48  O5  UNL     1       1.687   4.582  -3.888  1.00  0.00    -0.264 OA
BRANCH  47  49
HETATM   49  O4  UNL     1       1.959   2.469  -4.511  1.00  0.00    -0.299 OA
HETATM   50  C43 UNL     1       1.551   1.141  -4.724  1.00  0.00     0.184 C 
ENDBRANCH  47  49
ENDBRANCH  10  47
BRANCH  19  51
HETATM   51  C40 UNL     1      -2.050   2.763  -6.542  1.00  0.00     0.000 C 
HETATM   52  C41 UNL     1      -1.819   3.492  -7.874  1.00  0.00     0.000 C 
ENDBRANCH  19  51
TORSDOF 7
