REMARK  10 active torsions:
REMARK  status: ('A' for Active; 'I' for Inactive)
REMARK    1  A    between atoms: C2_2  and  C14_22 
REMARK    2  A    between atoms: C3_4  and  C13_19 
REMARK    3  A    between atoms: C5_6  and  C6_7 
REMARK    4  A    between atoms: C6_7  and  C7_8 
REMARK    5  A    between atoms: C7_8  and  N2_9 
REMARK    6  A    between atoms: N2_9  and  C8_10 
REMARK    7  A    between atoms: C8_10  and  C9_11 
REMARK    8  A    between atoms: C8_10  and  C10_14 
REMARK    9  A    between atoms: C10_14  and  C11_15 
REMARK   10  A    between atoms: C11_15  and  C12_16 
ROOT
HETATM    1  C1  UNL     1      -2.450  -1.941  -0.866  1.00  0.00     0.062 C 
HETATM    2  C2  UNL     1      -2.573  -3.291  -0.160  1.00  0.00     0.194 C 
HETATM    3  N1  UNL     1      -1.305  -4.035  -0.146  1.00  0.00    -0.255 NA
HETATM    4  C3  UNL     1      -0.169  -3.474  -0.233  1.00  0.00     0.141 C 
HETATM    5  C4  UNL     1      -0.033  -2.152  -0.447  1.00  0.00     0.021 C 
HETATM    6  C5  UNL     1      -1.073  -1.334  -0.701  1.00  0.00    -0.016 C 
ENDROOT
BRANCH   6   7
HETATM    7  C6  UNL     1      -0.962  -0.010  -0.931  1.00  0.00     0.016 C 
BRANCH   7   8
HETATM    8  C7  UNL     1       0.134   0.766  -0.932  1.00  0.00     0.093 C 
BRANCH   8   9
HETATM    9  N2  UNL     1       0.060   2.036  -1.219  1.00  0.00    -0.260 NA
BRANCH   9  10
HETATM   10  C8  UNL     1       1.204   2.996  -1.316  1.00  0.00     0.190 C 
BRANCH  10  11
HETATM   11  C9  UNL     1       0.929   3.147  -2.784  1.00  0.00     0.209 C 
HETATM   12  O1  UNL     1       1.474   2.307  -3.525  1.00  0.00    -0.646 OA
HETATM   13  O2  UNL     1      -0.018   3.902  -3.080  1.00  0.00    -0.646 OA
ENDBRANCH  10  11
BRANCH  10  14
HETATM   14  C10 UNL     1       1.028   4.257  -0.464  1.00  0.00     0.045 C 
BRANCH  14  15
HETATM   15  C11 UNL     1       1.073   3.968   1.043  1.00  0.00     0.094 C 
BRANCH  15  16
HETATM   16  C12 UNL     1       2.426   3.539   1.581  1.00  0.00     0.274 C 
HETATM   17  N3  UNL     1       2.406   3.119   2.876  1.00  0.00    -0.107 N 
HETATM   18  O3  UNL     1       3.469   3.567   0.978  1.00  0.00    -0.269 OA
ENDBRANCH  15  16
ENDBRANCH  14  15
ENDBRANCH  10  14
ENDBRANCH   9  10
ENDBRANCH   8   9
ENDBRANCH   7   8
ENDBRANCH   6   7
BRANCH   2  19
HETATM   19  C14 UNL     1      -3.028  -3.189   1.291  1.00  0.00     0.209 C 
HETATM   20  O6  UNL     1      -3.466  -4.376   1.753  1.00  0.00    -0.646 OA
HETATM   21  O7  UNL     1      -3.037  -2.205   1.992  1.00  0.00    -0.646 OA
ENDBRANCH   2  19
BRANCH   4  22
HETATM   22  C13 UNL     1       0.934  -4.263  -0.081  1.00  0.00     0.229 C 
HETATM   23  O4  UNL     1       2.205  -3.805  -0.139  1.00  0.00    -0.643 OA
HETATM   24  O5  UNL     1       0.813  -5.452   0.117  1.00  0.00    -0.643 OA
ENDBRANCH   4  22
TORSDOF 10
