REMARK  0 active torsions:
REMARK  status: ('A' for Active; 'I' for Inactive)
ROOT
HETATM    1  C1  UNL     1      -3.054   0.101   0.947  1.00  0.00     0.000 C 
HETATM    2  C2  UNL     1      -2.629  -1.371   0.910  1.00  0.00     0.002 C 
HETATM    3  C3  UNL     1      -1.412  -1.661  -0.002  1.00  0.00     0.025 C 
HETATM    4  C4  UNL     1      -0.279  -0.641   0.325  1.00  0.00     0.117 A 
HETATM    5  C5  UNL     1      -0.648   0.865   0.363  1.00  0.00     0.025 C 
HETATM    6  C6  UNL     1      -1.872   1.011   1.312  1.00  0.00     0.002 C 
HETATM    7  C7  UNL     1       0.450   1.802   0.938  1.00  0.00     0.005 C 
HETATM    8  C8  UNL     1       1.666   2.099   0.043  1.00  0.00     0.031 C 
HETATM    9  C9  UNL     1       2.474   0.894  -0.448  1.00  0.00     0.129 C 
HETATM   10  C10 UNL     1       2.351  -0.286   0.510  1.00  0.00     0.062 C 
HETATM   11  C11 UNL     1       1.078  -1.130   0.425  1.00  0.00     0.142 A 
HETATM   12  O1  UNL     1       0.441  -1.096   1.682  1.00  0.00    -0.357 OA
HETATM   13  O2  UNL     1       2.001   0.477  -1.701  1.00  0.00    -0.226 OA
HETATM   14  C12 UNL     1       3.941   1.299  -0.646  1.00  0.00     0.033 C 
HETATM   15  C13 UNL     1      -1.042   1.478  -1.005  1.00  0.00     0.002 C 
HETATM   16  C14 UNL     1      -1.069  -3.160   0.258  1.00  0.00     0.002 C 
HETATM   17  C15 UNL     1      -1.815  -1.630  -1.495  1.00  0.00     0.002 C 
ENDROOT
TORSDOF 0
