REMARK  0 active torsions:
REMARK  status: ('A' for Active; 'I' for Inactive)
ROOT
HETATM    1  C1  UNL     1      -2.288   1.012  -0.105  1.00  0.00     0.031 C 
HETATM    2  C2  UNL     1      -2.121  -0.413  -0.532  1.00  0.00     0.035 A 
HETATM    3  C3  UNL     1      -0.942  -1.019  -0.703  1.00  0.00    -0.013 A 
HETATM    4  C4  UNL     1       0.393  -0.353  -0.525  1.00  0.00     0.021 C 
HETATM    5  C5  UNL     1       0.253   0.947   0.299  1.00  0.00     0.011 C 
HETATM    6  C6  UNL     1      -0.951   1.758  -0.243  1.00  0.00     0.006 C 
HETATM    7  C7  UNL     1       1.557   1.750   0.107  1.00  0.00     0.065 C 
HETATM    8  C8  UNL     1       2.819   0.904   0.064  1.00  0.00     0.151 C 
HETATM    9  C9  UNL     1       2.757  -0.563   0.453  1.00  0.00     0.065 C 
HETATM   10  C10 UNL     1       1.459  -1.290   0.060  1.00  0.00     0.012 C 
HETATM   11  O1  UNL     1       3.876   1.408  -0.245  1.00  0.00    -0.296 OA
HETATM   12  C11 UNL     1       0.032   0.674   1.802  1.00  0.00     0.001 C 
HETATM   13  C12 UNL     1      -1.160  -2.428  -1.173  1.00  0.00     0.174 A 
HETATM   14  O2  UNL     1      -2.575  -2.560  -1.202  1.00  0.00    -0.294 OA
HETATM   15  C13 UNL     1      -3.063  -1.340  -0.819  1.00  0.00     0.291 A 
HETATM   16  O3  UNL     1      -4.249  -1.104  -0.747  1.00  0.00    -0.260 OA
ENDROOT
TORSDOF 0
