REMARK  4 active torsions:
REMARK  status: ('A' for Active; 'I' for Inactive)
REMARK    1  A    between atoms: C2_2  and  O15_45 
REMARK    2  A    between atoms: C21_27  and  O9_33 
REMARK    3  A    between atoms: O9_33  and  C25_34 
REMARK    4  A    between atoms: O15_45  and  C31_46 
ROOT
HETATM    1  C1  UNL     1      -1.139   2.113  -0.556  1.00  0.00     0.158 A 
HETATM    2  C2  UNL     1      -0.260   2.975   0.120  1.00  0.00     0.150 A 
HETATM    3  C3  UNL     1       0.912   2.437   0.694  1.00  0.00     0.149 A 
HETATM    4  C4  UNL     1       1.173   1.053   0.611  1.00  0.00     0.150 A 
HETATM    5  C5  UNL     1       0.281   0.200  -0.050  1.00  0.00     0.158 A 
HETATM    6  C6  UNL     1      -0.855   0.751  -0.637  1.00  0.00     0.059 A 
HETATM    7  O1  UNL     1       0.519  -1.136  -0.135  1.00  0.00    -0.188 OA
HETATM    8  O2  UNL     1       2.295   0.515   1.183  1.00  0.00    -0.301 OA
HETATM    9  C7  UNL     1       3.368   1.345   1.106  1.00  0.00     0.123 C 
HETATM   10  C8  UNL     1       3.112   2.838   1.186  1.00  0.00     0.131 C 
HETATM   11  O3  UNL     1       1.814   3.230   1.355  1.00  0.00    -0.303 OA
HETATM   12  C9  UNL     1       4.021   3.667   0.293  1.00  0.00     0.205 C 
HETATM   13  C10 UNL     1       5.472   3.326   0.553  1.00  0.00     0.094 C 
HETATM   14  C11 UNL     1       5.883   1.893   0.813  1.00  0.00     0.113 C 
HETATM   15  C12 UNL     1       4.748   0.900   0.665  1.00  0.00     0.046 C 
HETATM   16  C13 UNL     1       5.033  -0.409   0.138  1.00  0.00     0.036 C 
HETATM   17  C14 UNL     1       3.998  -1.525   0.166  1.00  0.00     0.179 C 
HETATM   18  O4  UNL     1       3.634  -1.877  -1.107  1.00  0.00    -0.218 OA
HETATM   19  C15 UNL     1       4.695  -2.694   0.833  1.00  0.00     0.077 C 
HETATM   20  C16 UNL     1       5.825  -3.336   0.056  1.00  0.00     0.202 C 
HETATM   21  C17 UNL     1       6.585  -2.284  -0.746  1.00  0.00     0.130 C 
HETATM   22  C18 UNL     1       6.421  -0.849  -0.287  1.00  0.00     0.120 C 
HETATM   23  O5  UNL     1       7.528  -0.062  -0.230  1.00  0.00    -0.301 OA
HETATM   24  C19 UNL     1       8.693  -0.768  -0.110  1.00  0.00     0.150 A 
HETATM   25  C20 UNL     1       8.832  -2.046  -0.691  1.00  0.00     0.149 A 
HETATM   26  O6  UNL     1       7.767  -2.600  -1.352  1.00  0.00    -0.303 OA
HETATM   27  C21 UNL     1      10.050  -2.744  -0.587  1.00  0.00     0.150 A 
HETATM   28  C22 UNL     1      11.111  -2.169   0.128  1.00  0.00     0.158 A 
HETATM   29  C23 UNL     1      10.948  -0.915   0.715  1.00  0.00     0.059 A 
HETATM   30  C24 UNL     1       9.758  -0.199   0.601  1.00  0.00     0.158 A 
HETATM   31  O7  UNL     1       9.642   1.029   1.169  1.00  0.00    -0.188 OA
HETATM   32  O8  UNL     1      12.290  -2.838   0.229  1.00  0.00    -0.188 OA
HETATM   33  O12 UNL     1       5.446  -4.424  -0.669  1.00  0.00    -0.216 OA
HETATM   34  O13 UNL     1       6.753   1.664   1.835  1.00  0.00    -0.195 OA
HETATM   35  O14 UNL     1       3.652   3.724  -1.017  1.00  0.00    -0.216 OA
HETATM   36  O18 UNL     1      -2.282   2.589  -1.120  1.00  0.00    -0.188 OA
ENDROOT
BRANCH   2  37
HETATM   37  O15 UNL     1      -0.648   4.290   0.201  1.00  0.00    -0.303 OA
BRANCH  37  38
HETATM   38  C31 UNL     1       0.285   5.272   0.361  1.00  0.00     0.104 A 
HETATM   39  C32 UNL     1       0.265   6.096   1.493  1.00  0.00     0.052 A 
HETATM   40  C33 UNL     1       1.181   7.131   1.692  1.00  0.00     0.135 A 
HETATM   41  C34 UNL     1       2.160   7.328   0.715  1.00  0.00     0.055 A 
HETATM   42  O17 UNL     1       1.127   7.923   2.795  1.00  0.00    -0.190 OA
HETATM   43  C35 UNL     1       2.222   6.543  -0.439  1.00  0.00     0.135 A 
HETATM   44  C36 UNL     1       1.258   5.544  -0.608  1.00  0.00     0.052 A 
HETATM   45  O16 UNL     1       3.186   6.757  -1.370  1.00  0.00    -0.190 OA
ENDBRANCH  37  38
ENDBRANCH   2  37
BRANCH  27  46
HETATM   46  O9  UNL     1      10.280  -3.946  -1.201  1.00  0.00    -0.303 OA
BRANCH  46  47
HETATM   47  C25 UNL     1       9.452  -5.008  -0.969  1.00  0.00     0.104 A 
HETATM   48  C26 UNL     1       9.434  -6.064  -1.889  1.00  0.00     0.052 A 
HETATM   49  C27 UNL     1       8.624  -7.193  -1.746  1.00  0.00     0.135 A 
HETATM   50  C28 UNL     1       7.776  -7.243  -0.638  1.00  0.00     0.055 A 
HETATM   51  O11 UNL     1       8.634  -8.194  -2.664  1.00  0.00    -0.190 OA
HETATM   52  C29 UNL     1       7.761  -6.227   0.319  1.00  0.00     0.135 A 
HETATM   53  C30 UNL     1       8.618  -5.137   0.149  1.00  0.00     0.052 A 
HETATM   54  O10 UNL     1       6.900  -6.284   1.367  1.00  0.00    -0.190 OA
ENDBRANCH  46  47
ENDBRANCH  27  46
TORSDOF 4
