REMARK  2 active torsions:
REMARK  status: ('A' for Active; 'I' for Inactive)
REMARK    1  A    between atoms: C3_3  and  C29_31 
REMARK    2  A    between atoms: C21_21  and  C24_24 
ROOT
HETATM    1  C1  UNL     1      -0.441  -2.965  -1.087  1.00  0.00     0.033 C 
HETATM    2  C2  UNL     1      -0.749  -3.078   0.632  1.00  0.00     0.154 C 
HETATM    3  C3  UNL     1      -2.265  -2.610   1.384  1.00  0.00     0.059 C 
HETATM    4  C4  UNL     1      -3.235  -1.488   0.290  1.00  0.00     0.005 A 
HETATM    5  C5  UNL     1      -2.707  -0.981  -1.434  1.00  0.00     0.001 C 
HETATM    6  C6  UNL     1      -1.369  -1.979  -2.195  1.00  0.00     0.003 C 
HETATM    7  C7  UNL     1      -1.792   0.130  -1.187  1.00  0.00     0.005 C 
HETATM    8  C8  UNL     1      -1.269  -1.017  -0.290  1.00  0.00     0.004 C 
HETATM    9  C9  UNL     1      -2.459  -2.641  -0.640  1.00  0.00     0.001 A 
HETATM   10  C10 UNL     1      -3.988  -2.559  -0.363  1.00  0.00     0.000 A 
HETATM   11  C11 UNL     1       0.394  -0.405  -0.654  1.00  0.00     0.015 C 
HETATM   12  C12 UNL     1       0.431   1.216  -0.469  1.00  0.00    -0.049 C 
HETATM   13  C13 UNL     1      -0.680   1.997  -0.471  1.00  0.00    -0.035 C 
HETATM   14  C14 UNL     1      -2.097   1.511  -0.669  1.00  0.00     0.025 C 
HETATM   15  C15 UNL     1       1.797   1.928  -0.369  1.00  0.00     0.025 C 
HETATM   16  C16 UNL     1       2.717   1.308   0.700  1.00  0.00     0.055 C 
HETATM   17  C17 UNL     1       2.872  -0.188   0.377  1.00  0.00     0.007 C 
HETATM   18  C18 UNL     1       1.523  -0.926   0.313  1.00  0.00     0.004 C 
HETATM   19  C19 UNL     1       4.092   1.982   0.621  1.00  0.00     0.150 C 
HETATM   20  C20 UNL     1       4.136   3.496   0.706  1.00  0.00     0.067 C 
HETATM   21  C21 UNL     1       3.166   4.168  -0.282  1.00  0.00     0.038 C 
HETATM   22  C22 UNL     1       1.784   3.470  -0.240  1.00  0.00     0.007 C 
HETATM   23  C23 UNL     1       3.757   4.104  -1.708  1.00  0.00     0.003 C 
HETATM   24  O2  UNL     1       5.121   1.348   0.542  1.00  0.00    -0.296 OA
HETATM   25  C25 UNL     1       2.205   1.501   2.143  1.00  0.00     0.008 C 
HETATM   26  C26 UNL     1       1.056  -0.493  -2.081  1.00  0.00     0.004 C 
HETATM   27  C27 UNL     1      -1.254  -0.325   1.154  1.00  0.00     0.000 C 
HETATM   28  C28 UNL     1      -3.769  -0.549  -2.461  1.00  0.00     0.000 C 
HETATM   29  C30 UNL     1      -2.236  -2.117   2.892  1.00  0.00     0.005 C 
HETATM   30  O4  UNL     1      -0.459  -4.428   0.943  1.00  0.00    -0.223 OA
ENDROOT
BRANCH   3  31
HETATM   31  C29 UNL     1      -2.968  -4.002   1.771  1.00  0.00     0.185 C 
HETATM   32  O3  UNL     1      -2.252  -4.709   2.774  1.00  0.00    -0.221 OA
ENDBRANCH   3  31
BRANCH  21  33
HETATM   33  C24 UNL     1       2.967   5.644   0.111  1.00  0.00     0.183 C 
HETATM   34  O1  UNL     1       4.201   6.332   0.153  1.00  0.00    -0.221 OA
ENDBRANCH  21  33
TORSDOF 2
