REMARK  3 active torsions:
REMARK  status: ('A' for Active; 'I' for Inactive)
REMARK    1  A    between atoms: C15_17  and  C18_20 
REMARK    2  A    between atoms: C18_20  and  C19_21 
REMARK    3  A    between atoms: C21_24  and  C25_28 
ROOT
HETATM    1  C1  UNL     1      -6.312   0.141  -2.229  1.00  0.00     0.035 C 
HETATM    2  C2  UNL     1      -6.671  -1.133  -2.040  1.00  0.00     0.012 C 
HETATM    3  C3  UNL     1      -6.046  -2.030  -1.016  1.00  0.00     0.202 C 
HETATM    4  C4  UNL     1      -4.669  -1.522  -0.609  1.00  0.00     0.156 A 
HETATM    5  C5  UNL     1      -4.430   0.001  -0.524  1.00  0.00     0.083 C 
HETATM    6  C6  UNL     1      -5.310   0.753  -1.552  1.00  0.00     0.174 C 
HETATM    7  O1  UNL     1      -5.123   1.933  -1.765  1.00  0.00    -0.291 OA
HETATM    8  C7  UNL     1      -2.949   0.451  -0.808  1.00  0.00     0.009 C 
HETATM    9  C8  UNL     1      -2.028  -0.701  -1.276  1.00  0.00     0.003 C 
HETATM   10  C9  UNL     1      -2.175  -1.923  -0.371  1.00  0.00     0.032 C 
HETATM   11  C10 UNL     1      -3.588  -2.467  -0.458  1.00  0.00     0.143 A 
HETATM   12  O2  UNL     1      -4.265  -2.273   0.755  1.00  0.00    -0.353 OA
HETATM   13  C11 UNL     1      -0.604  -0.178  -1.517  1.00  0.00     0.000 C 
HETATM   14  C12 UNL     1       0.076   0.615  -0.379  1.00  0.00     0.000 C 
HETATM   15  C13 UNL     1      -0.855   1.802  -0.067  1.00  0.00     0.000 C 
HETATM   16  C14 UNL     1      -2.287   1.333   0.275  1.00  0.00     0.001 C 
HETATM   17  C15 UNL     1       1.415   0.977  -1.089  1.00  0.00     0.002 C 
HETATM   18  C16 UNL     1       1.777  -0.274  -1.926  1.00  0.00     0.000 C 
HETATM   19  C17 UNL     1       0.488  -1.119  -2.037  1.00  0.00     0.000 C 
HETATM   20  C27 UNL     1       0.344  -0.180   0.913  1.00  0.00     0.000 C 
HETATM   21  C28 UNL     1      -4.984   0.512   0.831  1.00  0.00     0.010 C 
HETATM   22  O6  UNL     1      -6.036  -3.373  -1.492  1.00  0.00    -0.216 OA
ENDROOT
BRANCH  17  23
HETATM   23  C18 UNL     1       2.540   1.690  -0.287  1.00  0.00     0.028 C 
HETATM   24  C26 UNL     1       3.079   2.878  -1.118  1.00  0.00     0.003 C 
BRANCH  23  25
HETATM   25  C19 UNL     1       3.725   0.828   0.205  1.00  0.00     0.129 C 
HETATM   26  O3  UNL     1       3.255  -0.315   0.842  1.00  0.00    -0.301 OA
HETATM   27  C20 UNL     1       4.029  -0.981   1.740  1.00  0.00     0.294 C 
HETATM   28  C21 UNL     1       5.210  -0.541   2.250  1.00  0.00     0.066 C 
HETATM   29  O5  UNL     1       3.643  -2.067   2.126  1.00  0.00    -0.259 OA
HETATM   30  C22 UNL     1       5.597   0.705   1.927  1.00  0.00    -0.038 C 
HETATM   31  C23 UNL     1       4.712   1.590   1.087  1.00  0.00     0.052 C 
HETATM   32  C24 UNL     1       6.828   1.405   2.454  1.00  0.00     0.026 C 
BRANCH  28  33
HETATM   33  C25 UNL     1       5.980  -1.463   3.174  1.00  0.00     0.213 C 
HETATM   34  O4  UNL     1       6.019  -2.781   2.638  1.00  0.00    -0.215 OA
ENDBRANCH  28  33
ENDBRANCH  23  25
ENDBRANCH  17  23
TORSDOF 3
