REMARK  1 active torsions:
REMARK  status: ('A' for Active; 'I' for Inactive)
REMARK    1  A    between atoms: C15_16  and  C18_19 
ROOT
HETATM    1  C1  UNL     1      -5.532  -2.597  -1.598  1.00  0.00     0.034 C 
HETATM    2  C2  UNL     1      -5.611  -3.751  -0.922  1.00  0.00    -0.019 C 
HETATM    3  C3  UNL     1      -4.570  -4.208   0.055  1.00  0.00     0.048 C 
HETATM    4  C4  UNL     1      -3.289  -3.448  -0.192  1.00  0.00    -0.038 C 
HETATM    5  C5  UNL     1      -3.418  -1.946  -0.399  1.00  0.00     0.071 C 
HETATM    6  C6  UNL     1      -4.522  -1.702  -1.443  1.00  0.00     0.175 C 
HETATM    7  O1  UNL     1      -4.534  -0.705  -2.129  1.00  0.00    -0.291 OA
HETATM    8  C7  UNL     1      -2.072  -1.312  -0.876  1.00  0.00     0.011 C 
HETATM    9  C8  UNL     1      -0.852  -1.937  -0.158  1.00  0.00     0.005 C 
HETATM   10  C9  UNL     1      -0.787  -3.446  -0.416  1.00  0.00     0.025 C 
HETATM   11  C10 UNL     1      -2.116  -4.101  -0.198  1.00  0.00    -0.034 C 
HETATM   12  C11 UNL     1       0.458  -1.281  -0.623  1.00  0.00     0.000 C 
HETATM   13  C12 UNL     1       0.449   0.232  -0.370  1.00  0.00     0.000 C 
HETATM   14  C13 UNL     1      -0.661   0.825  -1.243  1.00  0.00     0.000 C 
HETATM   15  C14 UNL     1      -2.004   0.233  -0.777  1.00  0.00     0.001 C 
HETATM   16  C15 UNL     1       1.905   0.677  -0.616  1.00  0.00     0.005 C 
HETATM   17  C16 UNL     1       2.736  -0.603  -0.343  1.00  0.00     0.000 C 
HETATM   18  C17 UNL     1       1.750  -1.707   0.076  1.00  0.00     0.000 C 
HETATM   19  C26 UNL     1      -3.914  -1.315   0.921  1.00  0.00     0.012 C 
ENDROOT
BRANCH  16  20
HETATM   20  C18 UNL     1       2.380   1.867   0.251  1.00  0.00     0.058 C 
HETATM   21  C19 UNL     1       3.856   2.219  -0.029  1.00  0.00     0.130 C 
HETATM   22  O2  UNL     1       4.623   1.970   1.116  1.00  0.00    -0.301 OA
HETATM   23  C23 UNL     1       3.993   3.676  -0.450  1.00  0.00     0.065 C 
HETATM   24  C20 UNL     1       4.710   2.954   2.064  1.00  0.00     0.294 C 
HETATM   25  C21 UNL     1       4.122   4.178   1.934  1.00  0.00     0.068 C 
HETATM   26  O4  UNL     1       5.350   2.713   3.069  1.00  0.00    -0.259 OA
HETATM   27  C22 UNL     1       3.349   4.483   0.666  1.00  0.00     0.145 C 
HETATM   28  C25 UNL     1       4.215   5.102   2.906  1.00  0.00     0.003 C 
HETATM   29  O3  UNL     1       1.982   4.188   0.861  1.00  0.00    -0.352 OA
HETATM   30  C24 UNL     1       1.498   3.109   0.102  1.00  0.00     0.145 C 
ENDBRANCH  16  20
TORSDOF 1
