REMARK  1 active torsions:
REMARK  status: ('A' for Active; 'I' for Inactive)
REMARK    1  A    between atoms: C18_19  and  C20_23 
ROOT
HETATM    1  C1  UNL     1      -6.318  -1.925  -0.638  1.00  0.00     0.034 C 
HETATM    2  C2  UNL     1      -6.544  -3.086  -0.011  1.00  0.00    -0.019 C 
HETATM    3  C3  UNL     1      -5.573  -3.715   0.940  1.00  0.00     0.048 C 
HETATM    4  C4  UNL     1      -4.193  -3.143   0.732  1.00  0.00    -0.038 C 
HETATM    5  C5  UNL     1      -4.083  -1.647   0.492  1.00  0.00     0.071 C 
HETATM    6  C6  UNL     1      -5.191  -1.189  -0.472  1.00  0.00     0.175 C 
HETATM    7  O1  UNL     1      -5.093  -0.154  -1.094  1.00  0.00    -0.291 OA
HETATM    8  C7  UNL     1      -2.687  -1.279  -0.104  1.00  0.00     0.013 C 
HETATM    9  C8  UNL     1      -1.523  -1.960   0.646  1.00  0.00     0.034 C 
HETATM   10  C9  UNL     1      -1.700  -3.488   0.696  1.00  0.00     0.028 C 
HETATM   11  C10 UNL     1      -3.120  -3.936   0.867  1.00  0.00    -0.034 C 
HETATM   12  C11 UNL     1      -0.126  -1.579   0.114  1.00  0.00     0.135 C 
HETATM   13  C12 UNL     1       0.067  -0.101  -0.255  1.00  0.00     0.106 C 
HETATM   14  C13 UNL     1      -1.097   0.743   0.272  1.00  0.00     0.012 C 
HETATM   15  C14 UNL     1      -2.444   0.243  -0.267  1.00  0.00     0.001 C 
HETATM   16  C15 UNL     1       1.449   0.347   0.247  1.00  0.00     0.039 C 
HETATM   17  C16 UNL     1       2.137  -0.962   0.668  1.00  0.00     0.006 C 
HETATM   18  C17 UNL     1       0.972  -1.833   1.155  1.00  0.00     0.031 C 
HETATM   19  C18 UNL     1       2.074   1.169  -0.895  1.00  0.00     0.128 C 
HETATM   20  O2  UNL     1       1.253   0.940  -2.003  1.00  0.00    -0.304 OA
HETATM   21  C19 UNL     1       0.217   0.110  -1.748  1.00  0.00     0.273 C 
HETATM   22  O3  UNL     1      -0.502  -0.395  -2.583  1.00  0.00    -0.264 OA
HETATM   23  C27 UNL     1       3.487   0.712  -1.284  1.00  0.00     0.033 C 
HETATM   24  O6  UNL     1       0.184  -2.332  -1.033  1.00  0.00    -0.226 OA
HETATM   25  C28 UNL     1      -4.355  -0.981   1.861  1.00  0.00     0.012 C 
ENDROOT
BRANCH  19  26
HETATM   26  C20 UNL     1       2.065   2.683  -0.572  1.00  0.00     0.154 C 
HETATM   27  O4  UNL     1       2.259   3.433  -1.735  1.00  0.00    -0.298 OA
HETATM   28  C21 UNL     1       3.478   3.975  -2.018  1.00  0.00     0.291 C 
HETATM   29  C22 UNL     1       4.566   3.950  -1.198  1.00  0.00     0.034 C 
HETATM   30  O5  UNL     1       3.618   4.496  -3.107  1.00  0.00    -0.260 OA
HETATM   31  C23 UNL     1       4.406   3.452   0.041  1.00  0.00    -0.040 C 
HETATM   32  C26 UNL     1       5.871   4.503  -1.733  1.00  0.00     0.036 C 
HETATM   33  C24 UNL     1       3.032   3.087   0.537  1.00  0.00     0.054 C 
HETATM   34  C25 UNL     1       5.487   3.333   1.090  1.00  0.00     0.026 C 
ENDBRANCH  19  26
TORSDOF 1
