REMARK  7 active torsions:
REMARK  status: ('A' for Active; 'I' for Inactive)
REMARK    1  A    between atoms: C1_1  and  O6_27 
REMARK    2  A    between atoms: C2_2  and  C17_22 
REMARK    3  A    between atoms: C7_8  and  C10_12 
REMARK    4  A    between atoms: C13_15  and  O4_19 
REMARK    5  A    between atoms: C17_22  and  C18_23 
REMARK    6  A    between atoms: O6_27  and  C22_28 
REMARK    7  A    between atoms: C23_30  and  C27_37 
ROOT
HETATM    1  C1  UNL     1       0.998  -0.646  -0.987  1.00  0.00     0.095 A 
HETATM    2  C2  UNL     1       0.765  -0.942  -2.283  1.00  0.00     0.005 A 
HETATM    3  C3  UNL     1      -0.462  -1.349  -2.658  1.00  0.00     0.003 A 
HETATM    4  C4  UNL     1      -1.473  -1.472  -1.781  1.00  0.00     0.062 A 
HETATM    5  C5  UNL     1      -1.267  -1.182  -0.487  1.00  0.00     0.105 A 
HETATM    6  C6  UNL     1      -0.034  -0.781  -0.133  1.00  0.00     0.049 A 
HETATM    7  O1  UNL     1      -2.240  -1.277   0.463  1.00  0.00    -0.307 OA
HETATM    8  C7  UNL     1      -3.470  -1.730   0.069  1.00  0.00     0.103 A 
HETATM    9  C8  UNL     1      -3.670  -2.020  -1.233  1.00  0.00     0.067 A 
HETATM   10  C9  UNL     1      -2.701  -1.896  -2.179  1.00  0.00     0.200 A 
HETATM   11  O2  UNL     1      -2.950  -2.171  -3.333  1.00  0.00    -0.286 OA
ENDROOT
BRANCH   1  12
HETATM   12  O6  UNL     1       2.228  -0.194  -0.578  1.00  0.00    -0.304 OA
BRANCH  12  13
HETATM   13  C22 UNL     1       2.244   0.944   0.262  1.00  0.00     0.274 C 
HETATM   14  O7  UNL     1       3.633   1.188   0.381  1.00  0.00    -0.326 OA
HETATM   15  C23 UNL     1       3.929   2.252   1.247  1.00  0.00     0.184 C 
HETATM   16  C24 UNL     1       3.290   3.535   0.727  1.00  0.00     0.215 C 
HETATM   17  C25 UNL     1       1.802   3.340   0.534  1.00  0.00     0.220 C 
HETATM   18  O10 UNL     1       3.469   4.592   1.638  1.00  0.00    -0.218 OA
HETATM   19  C26 UNL     1       1.579   2.150  -0.374  1.00  0.00     0.241 C 
HETATM   20  O9  UNL     1       1.248   4.491  -0.050  1.00  0.00    -0.218 OA
HETATM   21  O8  UNL     1       0.193   1.978  -0.528  1.00  0.00    -0.215 OA
BRANCH  15  22
HETATM   22  C27 UNL     1       5.442   2.385   1.339  1.00  0.00     0.214 C 
HETATM   23  O11 UNL     1       5.990   1.220   1.925  1.00  0.00    -0.218 OA
ENDBRANCH  15  22
ENDBRANCH  12  13
ENDBRANCH   1  12
BRANCH   2  24
HETATM   24  C17 UNL     1       1.872  -0.858  -3.321  1.00  0.00     0.054 C 
BRANCH  24  25
HETATM   25  C18 UNL     1       2.548   0.489  -3.370  1.00  0.00    -0.030 C 
HETATM   26  C19 UNL     1       3.828   0.773  -3.063  1.00  0.00    -0.048 C 
HETATM   27  C20 UNL     1       4.354   2.189  -3.143  1.00  0.00     0.026 C 
HETATM   28  C21 UNL     1       4.859  -0.228  -2.597  1.00  0.00     0.026 C 
ENDBRANCH  24  25
ENDBRANCH   2  24
BRANCH   8  29
HETATM   29  C10 UNL     1      -4.444  -1.864   1.006  1.00  0.00     0.027 A 
HETATM   30  C11 UNL     1      -5.698  -2.304   0.785  1.00  0.00     0.032 A 
HETATM   31  C12 UNL     1      -6.617  -2.422   1.758  1.00  0.00     0.155 A 
HETATM   32  C13 UNL     1      -6.299  -2.118   3.031  1.00  0.00     0.145 A 
HETATM   33  O5  UNL     1      -7.875  -2.861   1.475  1.00  0.00    -0.188 OA
HETATM   34  C14 UNL     1      -5.072  -1.623   3.283  1.00  0.00     0.155 A 
HETATM   35  C15 UNL     1      -4.179  -1.526   2.284  1.00  0.00     0.032 A 
HETATM   36  O3  UNL     1      -4.719  -1.240   4.541  1.00  0.00    -0.188 OA
BRANCH  32  37
HETATM   37  O4  UNL     1      -7.256  -2.194   4.011  1.00  0.00    -0.324 OA
HETATM   38  C16 UNL     1      -7.148  -3.333   4.835  1.00  0.00     0.182 C 
ENDBRANCH  32  37
ENDBRANCH   8  29
TORSDOF 7
