REMARK  0 active torsions:
REMARK  status: ('A' for Active; 'I' for Inactive)
ROOT
HETATM    1  C1  UNL     1      -3.465   0.053  -0.047  1.00  0.00     0.135 A 
HETATM    2  C2  UNL     1      -3.366  -1.245   0.275  1.00  0.00     0.055 A 
HETATM    3  C3  UNL     1      -2.179  -1.847   0.459  1.00  0.00     0.131 A 
HETATM    4  C4  UNL     1      -1.051  -1.122   0.313  1.00  0.00     0.028 A 
HETATM    5  C5  UNL     1      -1.106   0.183  -0.025  1.00  0.00     0.095 A 
HETATM    6  C6  UNL     1      -2.321   0.739  -0.183  1.00  0.00     0.051 A 
HETATM    7  O1  UNL     1       0.000   0.978  -0.158  1.00  0.00    -0.327 OA
HETATM    8  C7  UNL     1       1.183   0.556   0.474  1.00  0.00     0.168 C 
HETATM    9  C8  UNL     1       1.468  -0.893   0.142  1.00  0.00     0.160 C 
HETATM   10  C9  UNL     1       0.291  -1.783   0.531  1.00  0.00     0.064 C 
HETATM   11  O2  UNL     1       1.815  -1.080  -1.200  1.00  0.00    -0.298 OA
HETATM   12  C10 UNL     1       2.638  -0.140  -1.758  1.00  0.00     0.295 C 
HETATM   13  C11 UNL     1       2.936   1.046  -1.167  1.00  0.00     0.062 C 
HETATM   14  C12 UNL     1       2.310   1.415  -0.041  1.00  0.00    -0.009 C 
HETATM   15  C13 UNL     1       2.552   2.735   0.642  1.00  0.00     0.029 C 
HETATM   16  O3  UNL     1       3.156  -0.372  -2.832  1.00  0.00    -0.259 OA
HETATM   17  O4  UNL     1      -2.137  -3.165   0.797  1.00  0.00    -0.190 OA
HETATM   18  O5  UNL     1      -4.671   0.658  -0.218  1.00  0.00    -0.190 OA
ENDROOT
TORSDOF 0
