REMARK  4 active torsions:
REMARK  status: ('A' for Active; 'I' for Inactive)
REMARK    1  A    between atoms: C1_1  and  O7_24 
REMARK    2  A    between atoms: C2_2  and  O6_22 
REMARK    3  A    between atoms: C3_3  and  O5_20 
REMARK    4  A    between atoms: C9_10  and  C10_12 
ROOT
HETATM    1  C1  UNL     1      -1.994   2.675   0.029  1.00  0.00     0.144 A 
HETATM    2  C2  UNL     1      -2.496   1.414  -0.007  1.00  0.00     0.142 A 
HETATM    3  C3  UNL     1      -1.649   0.347  -0.017  1.00  0.00     0.141 A 
HETATM    4  C4  UNL     1      -0.304   0.544   0.008  1.00  0.00     0.129 A 
HETATM    5  C5  UNL     1       0.177   1.802   0.042  1.00  0.00     0.091 A 
HETATM    6  C6  UNL     1      -0.657   2.858   0.053  1.00  0.00     0.160 A 
HETATM    7  O1  UNL     1      -0.186   4.141   0.088  1.00  0.00    -0.188 OA
HETATM    8  C7  UNL     1       1.526   2.007   0.066  1.00  0.00     0.202 A 
HETATM    9  C8  UNL     1       2.355   0.934   0.054  1.00  0.00     0.067 A 
HETATM   10  C9  UNL     1       1.900  -0.330   0.021  1.00  0.00     0.103 A 
HETATM   11  O2  UNL     1       0.548  -0.527  -0.002  1.00  0.00    -0.305 OA
HETATM   12  O4  UNL     1       2.058   3.096   0.097  1.00  0.00    -0.286 OA
ENDROOT
BRANCH  10  13
HETATM   13  C10 UNL     1       2.740  -1.399   0.011  1.00  0.00     0.023 A 
HETATM   14  C11 UNL     1       2.222  -2.646  -0.020  1.00  0.00     0.004 A 
HETATM   15  C12 UNL     1       2.983  -3.751  -0.032  1.00  0.00     0.028 A 
HETATM   16  C13 UNL     1       4.321  -3.677  -0.013  1.00  0.00     0.131 A 
HETATM   17  C14 UNL     1       4.855  -2.447   0.018  1.00  0.00     0.028 A 
HETATM   18  O3  UNL     1       5.102  -4.790  -0.024  1.00  0.00    -0.190 OA
HETATM   19  C15 UNL     1       4.088  -1.344   0.029  1.00  0.00     0.004 A 
ENDBRANCH  10  13
BRANCH   3  20
HETATM   20  O5  UNL     1      -2.238  -0.898  -0.054  1.00  0.00    -0.324 OA
HETATM   21  C16 UNL     1      -1.538  -2.114  -0.066  1.00  0.00     0.182 C 
ENDBRANCH   3  20
BRANCH   2  22
HETATM   22  O6  UNL     1      -3.873   1.318  -0.030  1.00  0.00    -0.324 OA
HETATM   23  C17 UNL     1      -4.608   0.120  -0.054  1.00  0.00     0.182 C 
ENDBRANCH   2  22
BRANCH   1  24
HETATM   24  O7  UNL     1      -2.725   3.850   0.044  1.00  0.00    -0.324 OA
HETATM   25  C18 UNL     1      -4.129   3.914   0.019  1.00  0.00     0.182 C 
ENDBRANCH   1  24
TORSDOF 4
