REMARK  5 active torsions:
REMARK  status: ('A' for Active; 'I' for Inactive)
REMARK    1  A    between atoms: C3_3  and  O8_28 
REMARK    2  A    between atoms: C4_4  and  C18_25 
REMARK    3  A    between atoms: C9_10  and  C11_12 
REMARK    4  A    between atoms: O8_28  and  C21_29 
REMARK    5  A    between atoms: C21_29  and  C22_30 
ROOT
HETATM    1  C1  UNL     1      -0.437   0.777   0.004  1.00  0.00     0.189 C 
HETATM    2  C2  UNL     1      -0.357  -0.781   0.222  1.00  0.00     0.187 C 
HETATM    3  C3  UNL     1      -0.569  -0.787   1.719  1.00  0.00     0.183 C 
HETATM    4  C4  UNL     1      -2.012  -0.071   1.412  1.00  0.00     0.161 C 
HETATM    5  C5  UNL     1      -1.926   0.664  -0.076  1.00  0.00     0.109 C 
HETATM    6  C6  UNL     1      -1.607   0.119  -1.598  1.00  0.00     0.224 C 
HETATM    7  O1  UNL     1      -0.835   1.149  -2.160  1.00  0.00    -0.330 OA
HETATM    8  C7  UNL     1       0.226   1.268  -1.271  1.00  0.00     0.179 C 
HETATM    9  C8  UNL     1       1.316   0.206  -1.359  1.00  0.00     0.161 C 
HETATM   10  C9  UNL     1       0.566  -1.077  -0.958  1.00  0.00     0.094 C 
HETATM   11  C10 UNL     1      -0.639  -1.072  -2.004  1.00  0.00     0.067 C 
HETATM   12  C12 UNL     1       2.065   0.220  -2.694  1.00  0.00     0.065 C 
HETATM   13  C13 UNL     1       2.383   1.607  -3.243  1.00  0.00     0.145 A 
HETATM   14  C14 UNL     1       1.831   2.774  -2.605  1.00  0.00     0.148 A 
HETATM   15  C15 UNL     1       0.841   2.658  -1.445  1.00  0.00     0.208 C 
HETATM   16  O3  UNL     1       1.486   3.088  -0.261  1.00  0.00    -0.218 OA
HETATM   17  O4  UNL     1       1.264   2.111  -3.939  1.00  0.00    -0.354 OA
HETATM   18  C16 UNL     1       2.462   4.128  -2.885  1.00  0.00     0.035 C 
HETATM   19  O5  UNL     1       2.279   0.467  -0.366  1.00  0.00    -0.223 OA
HETATM   20  O6  UNL     1      -2.759   0.157  -2.403  1.00  0.00    -0.195 OA
HETATM   21  C17 UNL     1      -2.644   2.030  -0.120  1.00  0.00     0.010 C 
HETATM   22  O7  UNL     1      -2.137   0.969   2.358  1.00  0.00    -0.223 OA
HETATM   23  O10 UNL     1      -1.399  -1.737  -0.038  1.00  0.00    -0.221 OA
HETATM   24  O11 UNL     1       0.093   1.546   1.046  1.00  0.00    -0.221 OA
ENDROOT
BRANCH   3  25
HETATM   25  O8  UNL     1      -0.673  -2.040   2.321  1.00  0.00    -0.295 OA
BRANCH  25  26
HETATM   26  C21 UNL     1       0.440  -2.783   2.593  1.00  0.00     0.314 C 
HETATM   27  O9  UNL     1       0.273  -3.936   2.997  1.00  0.00    -0.257 OA
BRANCH  26  28
HETATM   28  C22 UNL     1       1.875  -2.425   2.436  1.00  0.00     0.144 A 
HETATM   29  C23 UNL     1       2.484  -1.191   2.228  1.00  0.00     0.026 A 
HETATM   30  C24 UNL     1       3.873  -1.400   2.144  1.00  0.00     0.022 A 
HETATM   31  C25 UNL     1       4.107  -2.752   2.312  1.00  0.00     0.099 A 
HETATM   32  N1  UNL     1       2.897  -3.353   2.486  1.00  0.00    -0.239 NA
ENDBRANCH  26  28
ENDBRANCH  25  26
ENDBRANCH   3  25
BRANCH   4  33
HETATM   33  C18 UNL     1      -3.272  -0.952   1.711  1.00  0.00     0.031 C 
HETATM   34  C19 UNL     1      -3.656  -1.012   3.207  1.00  0.00     0.003 C 
HETATM   35  C20 UNL     1      -4.512  -0.559   0.893  1.00  0.00     0.003 C 
ENDBRANCH   4  33
BRANCH  10  36
HETATM   36  C11 UNL     1       1.394  -2.349  -0.955  1.00  0.00     0.187 C 
HETATM   37  O2  UNL     1       0.644  -3.399  -0.389  1.00  0.00    -0.221 OA
ENDBRANCH  10  36
TORSDOF 5
