REMARK  1 active torsions:
REMARK  status: ('A' for Active; 'I' for Inactive)
REMARK    1  A    between atoms: C5_5  and  C7_8 
ROOT
HETATM    1  C1  UNL     1       0.553   2.006  -0.504  1.00  0.00     0.226 C 
HETATM    2  C2  UNL     1       0.277   0.585  -0.756  1.00  0.00     0.189 A 
HETATM    3  C3  UNL     1       1.438  -0.290  -0.528  1.00  0.00     0.234 A 
HETATM    4  C4  UNL     1       2.737   0.285  -0.185  1.00  0.00     0.205 C 
HETATM    5  C5  UNL     1       2.766   1.602   0.511  1.00  0.00     0.043 C 
HETATM    6  C6  UNL     1       1.702   2.421   0.348  1.00  0.00     0.167 C 
HETATM    7  O1  UNL     1       1.584   3.671   0.870  1.00  0.00    -0.187 OA
HETATM    8  O2  UNL     1       3.759  -0.347  -0.422  1.00  0.00    -0.289 OA
HETATM    9  C10 UNL     1       1.148  -1.539   0.156  1.00  0.00     0.232 C 
HETATM   10  C11 UNL     1      -0.111  -2.253  -0.159  1.00  0.00     0.161 C 
HETATM   11  C12 UNL     1      -1.197  -1.547  -0.549  1.00  0.00    -0.014 C 
HETATM   12  C13 UNL     1      -1.136  -0.000  -0.497  1.00  0.00     0.050 C 
HETATM   13  C14 UNL     1      -2.097   0.624  -1.535  1.00  0.00     0.007 C 
HETATM   14  C15 UNL     1      -3.499   0.013  -1.544  1.00  0.00     0.001 C 
HETATM   15  C16 UNL     1      -3.381  -1.473  -1.872  1.00  0.00     0.004 C 
HETATM   16  C17 UNL     1      -2.526  -2.263  -0.858  1.00  0.00     0.017 C 
HETATM   17  C18 UNL     1      -2.335  -3.652  -1.527  1.00  0.00     0.004 C 
HETATM   18  C19 UNL     1      -3.324  -2.511   0.440  1.00  0.00     0.004 C 
HETATM   19  C20 UNL     1      -1.541   0.431   0.934  1.00  0.00     0.007 C 
HETATM   20  O3  UNL     1      -0.010  -3.596   0.021  1.00  0.00    -0.188 OA
HETATM   21  O4  UNL     1       1.930  -2.079   0.927  1.00  0.00    -0.286 OA
HETATM   22  O5  UNL     1       0.955  -0.040  -1.859  1.00  0.00    -0.336 OA
HETATM   23  O6  UNL     1      -0.206   2.905  -0.843  1.00  0.00    -0.286 OA
ENDROOT
BRANCH   5  24
HETATM   24  C7  UNL     1       3.997   1.975   1.316  1.00  0.00     0.027 C 
HETATM   25  C8  UNL     1       4.852   2.997   0.551  1.00  0.00     0.005 C 
HETATM   26  C9  UNL     1       3.675   2.458   2.739  1.00  0.00     0.005 C 
ENDBRANCH   5  24
TORSDOF 1
