REMARK  1 active torsions:
REMARK  status: ('A' for Active; 'I' for Inactive)
REMARK    1  A    between atoms: C3_3  and  C15_19 
ROOT
HETATM    1  C1  UNL     1      -2.400   0.528   0.269  1.00  0.00     0.033 C 
HETATM    2  C2  UNL     1      -1.985  -0.265   1.512  1.00  0.00     0.011 C 
HETATM    3  C3  UNL     1      -0.755  -1.145   1.222  1.00  0.00     0.067 C 
HETATM    4  C4  UNL     1       0.120  -0.566   0.085  1.00  0.00     0.038 C 
HETATM    5  C5  UNL     1       0.149   0.990   0.030  1.00  0.00     0.033 C 
HETATM    6  C6  UNL     1      -1.302   1.479  -0.221  1.00  0.00     0.152 C 
HETATM    7  O1  UNL     1      -1.502   2.753   0.345  1.00  0.00    -0.224 OA
HETATM    8  C7  UNL     1       1.061   1.474  -1.139  1.00  0.00     0.036 C 
HETATM    9  C8  UNL     1       2.454   0.828  -1.192  1.00  0.00     0.159 C 
HETATM   10  C9  UNL     1       2.251  -0.676  -1.243  1.00  0.00     0.086 C 
HETATM   11  C10 UNL     1       1.533  -1.141   0.029  1.00  0.00     0.132 C 
HETATM   12  O2  UNL     1       1.613  -2.545   0.062  1.00  0.00    -0.301 OA
HETATM   13  C11 UNL     1       2.754  -2.852  -0.623  1.00  0.00     0.292 C 
HETATM   14  C12 UNL     1       3.368  -1.674  -1.275  1.00  0.00     0.045 C 
HETATM   15  C13 UNL     1       4.610  -1.603  -1.778  1.00  0.00     0.001 C 
HETATM   16  O3  UNL     1       3.194  -3.993  -0.718  1.00  0.00    -0.260 OA
HETATM   17  O4  UNL     1       3.119   1.260  -2.355  1.00  0.00    -0.223 OA
HETATM   18  C14 UNL     1       0.729   1.618   1.323  1.00  0.00     0.003 C 
ENDROOT
BRANCH   3  19
HETATM   19  C15 UNL     1      -0.008  -1.471   2.507  1.00  0.00     0.207 C 
HETATM   20  O5  UNL     1       0.032  -2.589   2.964  1.00  0.00    -0.288 OA
ENDBRANCH   3  19
TORSDOF 1
