REMARK  5 active torsions:
REMARK  status: ('A' for Active; 'I' for Inactive)
REMARK    1  A    between atoms: C4_5  and  C5_6 
REMARK    2  A    between atoms: C5_6  and  O1_7 
REMARK    3  A    between atoms: O1_7  and  C6_8 
REMARK    4  A    between atoms: C7_9  and  C23_33 
REMARK    5  A    between atoms: C11_13  and  C21_28 
ROOT
HETATM    1  C6  UNL     1       2.113  -1.314   0.567  1.00  0.00     0.155 C 
HETATM    2  C7  UNL     1       0.760  -1.989  -0.021  1.00  0.00     0.159 C 
HETATM    3  C8  UNL     1       0.785  -0.806  -0.954  1.00  0.00     0.106 C 
HETATM    4  C9  UNL     1       0.823   0.263   0.271  1.00  0.00     0.163 C 
HETATM    5  C10 UNL     1       2.323   0.345   0.228  1.00  0.00     0.066 C 
HETATM    6  C11 UNL     1       1.966   1.465  -1.000  1.00  0.00     0.069 C 
HETATM    7  C12 UNL     1       1.047   2.461  -0.254  1.00  0.00     0.159 C 
HETATM    8  C13 UNL     1      -0.068   1.488   0.068  1.00  0.00     0.174 C 
HETATM    9  C14 UNL     1      -1.038   2.101   1.101  1.00  0.00     0.184 C 
HETATM   10  C15 UNL     1      -1.359   3.596   0.871  1.00  0.00     0.064 C 
HETATM   11  C16 UNL     1      -0.911   4.109  -0.502  1.00  0.00     0.157 C 
HETATM   12  C17 UNL     1       0.547   3.785  -0.843  1.00  0.00     0.066 C 
HETATM   13  O2  UNL     1      -1.775   3.607  -1.497  1.00  0.00    -0.223 OA
HETATM   14  C18 UNL     1      -0.860   4.552   1.975  1.00  0.00     0.005 C 
HETATM   15  O3  UNL     1      -0.638   1.905   2.438  1.00  0.00    -0.221 OA
HETATM   16  O4  UNL     1      -0.869   0.994  -0.954  1.00  0.00    -0.330 OA
HETATM   17  C19 UNL     1      -0.067   0.174  -1.725  1.00  0.00     0.224 C 
HETATM   18  C20 UNL     1       1.028   1.124  -2.240  1.00  0.00     0.065 C 
HETATM   19  O5  UNL     1      -0.888  -0.370  -2.719  1.00  0.00    -0.195 OA
HETATM   20  O6  UNL     1       1.714   2.780   0.945  1.00  0.00    -0.223 OA
HETATM   21  O8  UNL     1       0.467   0.007   1.618  1.00  0.00    -0.223 OA
HETATM   22  C22 UNL     1       1.841  -1.269  -2.053  1.00  0.00     0.010 C 
HETATM   23  O9  UNL     1      -0.404  -1.948   0.765  1.00  0.00    -0.223 OA
ENDROOT
BRANCH   1  24
HETATM   24  O1  UNL     1       3.262  -2.089   0.315  1.00  0.00    -0.297 OA
BRANCH  24  25
HETATM   25  C5  UNL     1       4.397  -1.792   1.018  1.00  0.00     0.314 C 
HETATM   26  O10 UNL     1       4.563  -0.683   1.524  1.00  0.00    -0.257 OA
BRANCH  25  27
HETATM   27  C4  UNL     1       5.367  -2.844   1.389  1.00  0.00     0.144 A 
HETATM   28  C1  UNL     1       5.265  -4.190   1.062  1.00  0.00     0.026 A 
HETATM   29  C2  UNL     1       6.376  -4.838   1.634  1.00  0.00     0.022 A 
HETATM   30  C3  UNL     1       7.132  -3.881   2.292  1.00  0.00     0.099 A 
HETATM   31  N1  UNL     1       6.512  -2.677   2.136  1.00  0.00    -0.239 NA
ENDBRANCH  25  27
ENDBRANCH  24  25
ENDBRANCH   1  24
BRANCH   2  32
HETATM   32  C23 UNL     1       0.873  -3.470  -0.452  1.00  0.00     0.031 C 
HETATM   33  C24 UNL     1       0.822  -4.414   0.767  1.00  0.00     0.003 C 
HETATM   34  C25 UNL     1      -0.218  -3.863  -1.466  1.00  0.00     0.003 C 
ENDBRANCH   2  32
BRANCH   6  35
HETATM   35  C21 UNL     1       3.282   2.121  -1.457  1.00  0.00     0.185 C 
HETATM   36  O7  UNL     1       3.060   3.271  -2.243  1.00  0.00    -0.221 OA
ENDBRANCH   6  35
TORSDOF 5
