REMARK  0 active torsions:
REMARK  status: ('A' for Active; 'I' for Inactive)
ROOT
HETATM    1  C1  UNL     1      -0.650  -0.156   2.176  1.00  0.00     0.178 C 
HETATM    2  C2  UNL     1      -0.167   1.199   1.683  1.00  0.00     0.067 C 
HETATM    3  C3  UNL     1      -0.482   1.505   0.197  1.00  0.00     0.007 C 
HETATM    4  C4  UNL     1      -1.995   1.282   0.017  1.00  0.00     0.003 C 
HETATM    5  C5  UNL     1      -2.090  -0.252   0.163  1.00  0.00     0.035 C 
HETATM    6  C6  UNL     1      -2.005  -0.619   1.654  1.00  0.00     0.177 C 
HETATM    7  O1  UNL     1      -2.987   0.117   2.364  1.00  0.00    -0.218 OA
HETATM    8  C7  UNL     1      -2.348  -2.080   1.962  1.00  0.00     0.041 C 
HETATM    9  C8  UNL     1      -0.943  -0.711  -0.792  1.00  0.00     0.003 C 
HETATM   10  C9  UNL     1       0.081   0.478  -0.835  1.00  0.00     0.001 C 
HETATM   11  C10 UNL     1       1.461  -0.141  -0.501  1.00  0.00     0.000 C 
HETATM   12  C11 UNL     1       1.324  -1.607  -0.931  1.00  0.00     0.000 C 
HETATM   13  C12 UNL     1      -0.078  -1.933  -0.402  1.00  0.00     0.000 C 
HETATM   14  C13 UNL     1       0.232   1.107  -2.243  1.00  0.00     0.000 C 
HETATM   15  C14 UNL     1      -1.599  -1.057  -2.153  1.00  0.00     0.000 C 
HETATM   16  C15 UNL     1      -0.105   2.974  -0.070  1.00  0.00     0.000 C 
HETATM   17  O2  UNL     1      -0.048  -0.785   3.016  1.00  0.00    -0.293 OA
ENDROOT
TORSDOF 0
