REMARK  5 active torsions:
REMARK  status: ('A' for Active; 'I' for Inactive)
REMARK    1  A    between atoms: C4_5  and  C5_6 
REMARK    2  A    between atoms: C5_6  and  O2_8 
REMARK    3  A    between atoms: O2_8  and  C6_9 
REMARK    4  A    between atoms: C10_13  and  C11_14 
REMARK    5  A    between atoms: C18_23  and  C20_25 
ROOT
HETATM    1  C6  UNL     1       5.346   0.215   0.073  1.00  0.00     0.183 C 
HETATM    2  C7  UNL     1       4.114  -1.026  -0.183  1.00  0.00     0.187 C 
HETATM    3  C8  UNL     1       3.410   0.302  -0.417  1.00  0.00     0.189 C 
HETATM    4  C9  UNL     1       3.609   0.917   1.058  1.00  0.00     0.109 C 
HETATM    5  C10 UNL     1       4.822   1.672   0.575  1.00  0.00     0.161 C 
HETATM    6  O3  UNL     1       4.450   2.604  -0.412  1.00  0.00    -0.223 OA
HETATM    7  C14 UNL     1       4.067   0.404   2.475  1.00  0.00     0.010 C 
HETATM    8  C15 UNL     1       2.100   0.920   1.177  1.00  0.00     0.224 C 
HETATM    9  O4  UNL     1       1.422   1.263   0.031  1.00  0.00    -0.330 OA
HETATM   10  C16 UNL     1       1.979   0.493  -0.971  1.00  0.00     0.179 C 
HETATM   11  C17 UNL     1       1.691  -0.980  -1.066  1.00  0.00     0.159 C 
HETATM   12  C18 UNL     1       2.493  -1.384   0.188  1.00  0.00     0.094 C 
HETATM   13  C19 UNL     1       1.769  -0.579   1.344  1.00  0.00     0.067 C 
HETATM   14  C21 UNL     1       0.203  -1.259  -1.274  1.00  0.00     0.036 C 
HETATM   15  C22 UNL     1      -0.299  -0.561  -2.552  1.00  0.00     0.036 C 
HETATM   16  C23 UNL     1       0.029   0.938  -2.581  1.00  0.00     0.157 C 
HETATM   17  C24 UNL     1       1.511   1.192  -2.268  1.00  0.00     0.209 C 
HETATM   18  O6  UNL     1       2.215   0.786  -3.420  1.00  0.00    -0.218 OA
HETATM   19  O7  UNL     1      -0.175   1.391  -3.897  1.00  0.00    -0.223 OA
HETATM   20  C25 UNL     1      -0.944   1.733  -1.706  1.00  0.00     0.036 C 
HETATM   21  O8  UNL     1       2.377  -1.532  -2.169  1.00  0.00    -0.223 OA
HETATM   22  O9  UNL     1       1.582   1.748   2.182  1.00  0.00    -0.195 OA
HETATM   23  O10 UNL     1       3.965   0.779  -1.640  1.00  0.00    -0.221 OA
HETATM   24  O11 UNL     1       4.491  -1.680   1.008  1.00  0.00    -0.221 OA
ENDROOT
BRANCH   1  25
HETATM   25  O2  UNL     1       6.482  -0.275   0.765  1.00  0.00    -0.295 OA
BRANCH  25  26
HETATM   26  C5  UNL     1       7.193  -1.262   0.127  1.00  0.00     0.314 C 
HETATM   27  O1  UNL     1       7.040  -1.502  -1.060  1.00  0.00    -0.257 OA
BRANCH  26  28
HETATM   28  C4  UNL     1       8.041  -2.280   0.854  1.00  0.00     0.144 A 
HETATM   29  C1  UNL     1       7.563  -3.295   1.657  1.00  0.00     0.026 A 
HETATM   30  C2  UNL     1       8.683  -4.066   2.046  1.00  0.00     0.022 A 
HETATM   31  C3  UNL     1       9.808  -3.497   1.478  1.00  0.00     0.099 A 
HETATM   32  N1  UNL     1       9.404  -2.410   0.751  1.00  0.00    -0.239 NA
ENDBRANCH  26  28
ENDBRANCH  25  26
ENDBRANCH   1  25
BRANCH   5  33
HETATM   33  C11 UNL     1       5.772   2.449   1.511  1.00  0.00     0.031 C 
HETATM   34  C12 UNL     1       7.013   2.970   0.757  1.00  0.00     0.003 C 
HETATM   35  C13 UNL     1       5.069   3.640   2.196  1.00  0.00     0.003 C 
ENDBRANCH   5  33
BRANCH  12  36
HETATM   36  C20 UNL     1       2.274  -2.909   0.386  1.00  0.00     0.187 C 
HETATM   37  O5  UNL     1       0.981  -3.184   0.886  1.00  0.00    -0.221 OA
ENDBRANCH  12  36
TORSDOF 5
