REMARK  2 active torsions:
REMARK  status: ('A' for Active; 'I' for Inactive)
REMARK    1  A    between atoms: C3_3  and  C29_31 
REMARK    2  A    between atoms: C21_21  and  C23_23 
ROOT
HETATM    1  C1  UNL     1      -5.041   0.444  -1.524  1.00  0.00     0.033 C 
HETATM    2  C2  UNL     1      -5.559   0.932  -0.158  1.00  0.00     0.154 C 
HETATM    3  C3  UNL     1      -5.102   0.004   0.990  1.00  0.00     0.059 C 
HETATM    4  C4  UNL     1      -3.551  -0.207   0.990  1.00  0.00     0.005 C 
HETATM    5  C5  UNL     1      -2.967  -0.601  -0.404  1.00  0.00     0.001 C 
HETATM    6  C6  UNL     1      -3.514   0.303  -1.541  1.00  0.00     0.003 C 
HETATM    7  C7  UNL     1      -1.416  -0.547  -0.301  1.00  0.00     0.005 C 
HETATM    8  C8  UNL     1      -0.826   0.871  -0.074  1.00  0.00     0.004 C 
HETATM    9  C9  UNL     1      -1.773   1.713   0.830  1.00  0.00     0.000 C 
HETATM   10  C10 UNL     1      -2.723   0.895   1.719  1.00  0.00     0.000 C 
HETATM   11  C11 UNL     1       0.619   0.699   0.514  1.00  0.00     0.015 C 
HETATM   12  C12 UNL     1       1.437  -0.316  -0.299  1.00  0.00    -0.049 C 
HETATM   13  C13 UNL     1       0.859  -1.156  -1.195  1.00  0.00    -0.035 C 
HETATM   14  C14 UNL     1      -0.635  -1.238  -1.428  1.00  0.00     0.025 C 
HETATM   15  C15 UNL     1       2.947  -0.359  -0.033  1.00  0.00     0.020 C 
HETATM   16  C16 UNL     1       3.590   1.049  -0.102  1.00  0.00     0.032 C 
HETATM   17  C17 UNL     1       2.848   1.965   0.891  1.00  0.00     0.003 C 
HETATM   18  C18 UNL     1       1.354   2.069   0.570  1.00  0.00     0.004 C 
HETATM   19  C19 UNL     1       5.090   0.953   0.289  1.00  0.00     0.152 C 
HETATM   20  C20 UNL     1       5.865  -0.064  -0.570  1.00  0.00     0.035 C 
HETATM   21  C21 UNL     1       5.238  -1.467  -0.498  1.00  0.00     0.034 C 
HETATM   22  C22 UNL     1       3.746  -1.387  -0.877  1.00  0.00     0.007 C 
HETATM   23  C24 UNL     1       5.391  -2.039   0.916  1.00  0.00     0.003 C 
HETATM   24  O2  UNL     1       5.723   2.213   0.166  1.00  0.00    -0.224 OA
HETATM   25  C25 UNL     1       3.451   1.606  -1.533  1.00  0.00     0.003 C 
HETATM   26  C26 UNL     1       0.545   0.145   1.943  1.00  0.00     0.004 C 
HETATM   27  C27 UNL     1      -0.707   1.608  -1.426  1.00  0.00     0.000 C 
HETATM   28  C28 UNL     1      -3.385  -2.047  -0.721  1.00  0.00     0.000 C 
HETATM   29  C30 UNL     1      -5.797  -1.353   0.803  1.00  0.00     0.005 C 
HETATM   30  O4  UNL     1      -5.117   2.258   0.062  1.00  0.00    -0.223 OA
ENDROOT
BRANCH   3  31
HETATM   31  C29 UNL     1      -5.598   0.527   2.348  1.00  0.00     0.185 C 
HETATM   32  O3  UNL     1      -5.037  -0.273   3.363  1.00  0.00    -0.221 OA
ENDBRANCH   3  31
BRANCH  21  33
HETATM   33  C23 UNL     1       5.965  -2.402  -1.471  1.00  0.00     0.182 C 
HETATM   34  O1  UNL     1       5.365  -3.676  -1.391  1.00  0.00    -0.221 OA
ENDBRANCH  21  33
TORSDOF 2
