REMARK  4 active torsions:
REMARK  status: ('A' for Active; 'I' for Inactive)
REMARK    1  A    between atoms: C4_4  and  O2_17 
REMARK    2  A    between atoms: C5_5  and  C7_7 
REMARK    3  A    between atoms: C7_7  and  C8_8 
REMARK    4  A    between atoms: C9_9  and  C10_10 
ROOT
HETATM    1  C7  UNL     1       0.606   0.317  -0.086  1.00  0.00     0.002 C 
ENDROOT
BRANCH   1   2
HETATM    2  C5  UNL     1       2.119   0.133  -0.031  1.00  0.00     0.022 A 
HETATM    3  C4  UNL     1       2.712  -1.056   0.270  1.00  0.00     0.096 A 
HETATM    4  C3  UNL     1       4.063  -1.080   0.284  1.00  0.00     0.052 A 
HETATM    5  C2  UNL     1       4.865  -0.039   0.025  1.00  0.00     0.133 A 
HETATM    6  C1  UNL     1       4.259   1.117  -0.268  1.00  0.00     0.028 A 
HETATM    7  O3  UNL     1       6.219  -0.157   0.060  1.00  0.00    -0.190 OA
HETATM    8  C6  UNL     1       2.922   1.185  -0.290  1.00  0.00     0.004 A 
BRANCH   3   9
HETATM    9  O2  UNL     1       2.149  -2.279   0.579  1.00  0.00    -0.328 OA
HETATM   10  C16 UNL     1       0.769  -2.518   0.682  1.00  0.00     0.181 C 
ENDBRANCH   3   9
ENDBRANCH   1   2
BRANCH   1  11
HETATM   11  C8  UNL     1      -0.072   1.620  -0.442  1.00  0.00     0.000 C 
HETATM   12  C9  UNL     1      -1.392   1.887  -0.514  1.00  0.00     0.000 C 
BRANCH  12  13
HETATM   13  C10 UNL     1      -2.495   1.133  -0.311  1.00  0.00     0.000 A 
HETATM   14  C11 UNL     1      -3.705   1.712  -0.470  1.00  0.00     0.002 A 
HETATM   15  C12 UNL     1      -4.853   1.039  -0.291  1.00  0.00     0.027 A 
HETATM   16  C13 UNL     1      -4.856  -0.257   0.058  1.00  0.00     0.131 A 
HETATM   17  C14 UNL     1      -3.660  -0.843   0.220  1.00  0.00     0.027 A 
HETATM   18  O1  UNL     1      -6.010  -0.952   0.242  1.00  0.00    -0.190 OA
HETATM   19  C15 UNL     1      -2.516  -0.166   0.040  1.00  0.00     0.002 A 
ENDBRANCH  12  13
ENDBRANCH   1  11
TORSDOF 4
