REMARK  3 active torsions:
REMARK  status: ('A' for Active; 'I' for Inactive)
REMARK    1  A    between atoms: C3_3  and  C20_25 
REMARK    2  A    between atoms: C20_25  and  O6_26 
REMARK    3  A    between atoms: O6_26  and  C21_27 
ROOT
HETATM    1  C1  UNL     1      -2.747   1.176   1.441  1.00  0.00     0.033 C 
HETATM    2  C2  UNL     1      -2.829  -0.353   1.460  1.00  0.00     0.005 C 
HETATM    3  C3  UNL     1      -2.070  -0.997   0.273  1.00  0.00     0.031 C 
HETATM    4  C4  UNL     1      -0.617  -0.407   0.177  1.00  0.00     0.043 C 
HETATM    5  C5  UNL     1      -0.353   1.085   0.568  1.00  0.00     0.059 C 
HETATM    6  C6  UNL     1      -1.300   1.596   1.665  1.00  0.00     0.154 C 
HETATM    7  O1  UNL     1      -0.929   1.095   2.929  1.00  0.00    -0.223 OA
HETATM    8  C7  UNL     1       1.156   1.355   0.902  1.00  0.00     0.017 C 
HETATM    9  C8  UNL     1       2.042   0.637  -0.147  1.00  0.00     0.108 C 
HETATM   10  C9  UNL     1       1.145   0.440  -1.359  1.00  0.00     0.254 C 
HETATM   11  C10 UNL     1       0.045  -0.590  -1.198  1.00  0.00     0.206 C 
HETATM   12  O2  UNL     1       0.482  -1.908  -1.427  1.00  0.00    -0.218 OA
HETATM   13  O3  UNL     1       1.883   0.175  -2.526  1.00  0.00    -0.192 OA
HETATM   14  O4  UNL     1       0.524   1.667  -1.647  1.00  0.00    -0.330 OA
HETATM   15  C11 UNL     1      -0.531   1.916  -0.736  1.00  0.00     0.147 C 
HETATM   16  C12 UNL     1       3.302   1.516  -0.320  1.00  0.00     0.017 C 
HETATM   17  C13 UNL     1       4.028   1.193   0.999  1.00  0.00     0.026 C 
HETATM   18  C14 UNL     1       3.267   1.742   2.220  1.00  0.00     0.004 C 
HETATM   19  C15 UNL     1       1.800   1.249   2.295  1.00  0.00     0.001 C 
HETATM   20  C16 UNL     1       3.871  -0.301   1.007  1.00  0.00     0.012 C 
HETATM   21  C17 UNL     1       2.716  -0.639   0.384  1.00  0.00     0.173 C 
HETATM   22  O5  UNL     1       2.315  -1.769   0.258  1.00  0.00    -0.291 OA
HETATM   23  C18 UNL     1       4.716  -1.176   1.566  1.00  0.00    -0.002 C 
HETATM   24  C19 UNL     1      -1.995  -2.515   0.593  1.00  0.00     0.003 C 
ENDROOT
BRANCH   3  25
HETATM   25  C20 UNL     1      -2.975  -0.836  -0.974  1.00  0.00     0.152 C 
BRANCH  25  26
HETATM   26  O6  UNL     1      -2.659  -1.756  -1.987  1.00  0.00    -0.302 OA
BRANCH  26  27
HETATM   27  C21 UNL     1      -3.319  -1.615  -3.167  1.00  0.00     0.272 C 
HETATM   28  C22 UNL     1      -2.813  -2.627  -4.175  1.00  0.00     0.106 C 
HETATM   29  O7  UNL     1      -4.175  -0.789  -3.389  1.00  0.00    -0.264 OA
ENDBRANCH  26  27
ENDBRANCH  25  26
ENDBRANCH   3  25
TORSDOF 3
