REMARK  0 active torsions:
REMARK  status: ('A' for Active; 'I' for Inactive)
ROOT
HETATM    1  C1  UNL     1      -0.818   1.674  -0.663  1.00  0.00    -0.042 C 
HETATM    2  C2  UNL     1      -1.771   0.501  -0.720  1.00  0.00     0.025 C 
HETATM    3  C3  UNL     1      -1.089  -0.886  -0.736  1.00  0.00     0.050 C 
HETATM    4  C4  UNL     1       0.438  -0.918  -0.809  1.00  0.00     0.131 C 
HETATM    5  C5  UNL     1       1.271  -0.346   0.340  1.00  0.00     0.068 C 
HETATM    6  C6  UNL     1       0.638   0.705   1.255  1.00  0.00     0.159 C 
HETATM    7  C7  UNL     1      -0.008   1.920   0.590  1.00  0.00     0.055 C 
HETATM    8  O1  UNL     1      -0.273   0.080   2.126  1.00  0.00    -0.223 OA
HETATM    9  C8  UNL     1       2.503   0.202  -0.398  1.00  0.00     0.091 C 
HETATM   10  C9  UNL     1       2.017   0.396  -1.817  1.00  0.00     0.272 C 
HETATM   11  O2  UNL     1       0.863  -0.292  -1.987  1.00  0.00    -0.304 OA
HETATM   12  O3  UNL     1       2.579   1.036  -2.679  1.00  0.00    -0.264 OA
HETATM   13  C10 UNL     1       3.702  -0.755  -0.360  1.00  0.00     0.011 C 
HETATM   14  C11 UNL     1      -1.776  -1.629   0.383  1.00  0.00    -0.042 C 
HETATM   15  C12 UNL     1      -3.130  -1.012   0.621  1.00  0.00     0.022 C 
HETATM   16  C13 UNL     1      -2.851   0.480   0.381  1.00  0.00     0.009 C 
HETATM   17  C14 UNL     1      -1.291  -2.678   1.060  1.00  0.00    -0.009 C 
HETATM   18  C15 UNL     1      -0.695   2.503  -1.716  1.00  0.00    -0.009 C 
ENDROOT
TORSDOF 0
