REMARK  6 active torsions:
REMARK  status: ('A' for Active; 'I' for Inactive)
REMARK    1  A    between atoms: C1_1  and  C2_2 
REMARK    2  A    between atoms: C1_1  and  C7_11 
REMARK    3  A    between atoms: C2_2  and  C3_3 
REMARK    4  A    between atoms: C3_3  and  C4_4 
REMARK    5  A    between atoms: C4_4  and  C5_5 
REMARK    6  A    between atoms: C5_5  and  C6_6 
ROOT
HETATM    1  C3  UNL     1      -0.769   0.366   0.311  1.00  0.00     0.213 C 
HETATM    2  O3  UNL     1      -1.882   0.869  -0.393  1.00  0.00    -0.218 OA
ENDROOT
BRANCH   1   3
HETATM    3  C2  UNL     1       0.475   1.062  -0.221  1.00  0.00     0.188 C 
HETATM    4  O4  UNL     1       0.564   0.771  -1.596  1.00  0.00    -0.221 OA
BRANCH   3   5
HETATM    5  C1  UNL     1       0.434   2.580  -0.013  1.00  0.00     0.071 C 
BRANCH   5   6
HETATM    6  C7  UNL     1       1.784   3.277  -0.172  1.00  0.00     0.185 C 
HETATM    7  O5  UNL     1       2.239   3.193  -1.506  1.00  0.00    -0.221 OA
ENDBRANCH   5   6
ENDBRANCH   3   5
ENDBRANCH   1   3
BRANCH   1   8
HETATM    8  C4  UNL     1      -0.803  -1.148   0.153  1.00  0.00     0.188 C 
HETATM    9  O2  UNL     1      -2.108  -1.548   0.509  1.00  0.00    -0.221 OA
BRANCH   8  10
HETATM   10  C5  UNL     1       0.207  -1.893   1.028  1.00  0.00     0.071 C 
BRANCH  10  11
HETATM   11  C6  UNL     1       0.255  -3.392   0.742  1.00  0.00     0.185 C 
HETATM   12  O1  UNL     1      -1.027  -3.959   0.912  1.00  0.00    -0.221 OA
ENDBRANCH  10  11
ENDBRANCH   8  10
ENDBRANCH   1   8
TORSDOF 6
