REMARK  3 active torsions:
REMARK  status: ('A' for Active; 'I' for Inactive)
REMARK    1  A    between atoms: C3_4  and  C5_6 
REMARK    2  A    between atoms: C9_10  and  C10_12 
REMARK    3  A    between atoms: C14_16  and  C15_18 
ROOT
HETATM    1  C10 UNL     1       3.272  -0.438   0.466  1.00  0.00     0.038 C 
HETATM    2  C11 UNL     1       4.321  -1.145   0.968  1.00  0.00     0.083 A 
HETATM    3  C12 UNL     1       4.202  -2.243   1.921  1.00  0.00     0.021 A 
HETATM    4  C13 UNL     1       5.464  -2.669   2.174  1.00  0.00     0.021 A 
HETATM    5  C14 UNL     1       6.373  -1.850   1.392  1.00  0.00     0.083 A 
HETATM    6  N3  UNL     1       5.691  -0.978   0.694  1.00  0.00    -0.245 NA
ENDROOT
BRANCH   1   7
HETATM    7  C9  UNL     1       3.346   0.670  -0.482  1.00  0.00     0.083 A 
HETATM    8  C8  UNL     1       4.519   1.281  -1.080  1.00  0.00     0.021 A 
HETATM    9  C7  UNL     1       4.093   2.278  -1.896  1.00  0.00     0.021 A 
HETATM   10  C6  UNL     1       2.640   2.291  -1.806  1.00  0.00     0.083 A 
HETATM   11  C5  UNL     1       1.823   3.149  -2.481  1.00  0.00     0.038 C 
HETATM   12  N2  UNL     1       2.268   1.272  -0.913  1.00  0.00    -0.245 NA
BRANCH  11  13
HETATM   13  C3  UNL     1       0.371   3.181  -2.410  1.00  0.00     0.083 A 
HETATM   14  N1  UNL     1      -0.397   4.088  -3.117  1.00  0.00    -0.244 NA
HETATM   15  C2  UNL     1      -1.730   3.892  -2.865  1.00  0.00     0.099 A 
HETATM   16  C1  UNL     1      -1.831   2.838  -1.980  1.00  0.00     0.022 A 
HETATM   17  C4  UNL     1      -0.524   2.393  -1.695  1.00  0.00     0.021 A 
ENDBRANCH  11  13
ENDBRANCH   1   7
BRANCH   5  18
HETATM   18  C15 UNL     1       7.830  -1.919   1.314  1.00  0.00     0.038 C 
HETATM   19  C16 UNL     1       8.641  -2.750   2.022  1.00  0.00     0.083 A 
HETATM   20  C17 UNL     1      10.098  -2.786   1.905  1.00  0.00     0.021 A 
HETATM   21  N4  UNL     1       8.264  -3.718   2.986  1.00  0.00    -0.244 NA
HETATM   22  C18 UNL     1      10.535  -3.740   2.764  1.00  0.00     0.022 A 
HETATM   23  C19 UNL     1       9.354  -4.280   3.406  1.00  0.00     0.099 A 
ENDBRANCH   5  18
TORSDOF 3
