REMARK  1 active torsions:
REMARK  status: ('A' for Active; 'I' for Inactive)
REMARK    1  A    between atoms: C15_16  and  O1_18 
ROOT
HETATM    1  C1  UNL     1      -1.503  -2.806   0.066  1.00  0.00     0.119 A 
HETATM    2  C2  UNL     1      -0.343  -2.140  -0.007  1.00  0.00     0.119 A 
HETATM    3  C3  UNL     1      -0.290  -0.794  -0.128  1.00  0.00     0.022 A 
HETATM    4  C4  UNL     1      -1.497  -0.176  -0.245  1.00  0.00    -0.002 A 
HETATM    5  C5  UNL     1      -2.667  -0.847  -0.151  1.00  0.00    -0.020 A 
HETATM    6  C6  UNL     1      -2.678  -2.178   0.010  1.00  0.00     0.022 A 
HETATM    7  C7  UNL     1      -3.986  -0.116  -0.187  1.00  0.00     0.052 C 
HETATM    8  C8  UNL     1      -3.782   1.290   0.376  1.00  0.00     0.125 C 
HETATM    9  N1  UNL     1      -2.811   1.971  -0.464  1.00  0.00    -0.292 NA
HETATM   10  C9  UNL     1      -1.509   1.308  -0.564  1.00  0.00     0.124 C 
HETATM   11  C10 UNL     1      -0.489   1.982   0.340  1.00  0.00     0.055 C 
HETATM   12  C11 UNL     1       0.820   1.275   0.095  1.00  0.00    -0.018 A 
HETATM   13  C12 UNL     1       0.857  -0.061  -0.118  1.00  0.00    -0.002 A 
HETATM   14  C13 UNL     1       2.100  -0.563  -0.266  1.00  0.00     0.002 A 
HETATM   15  C14 UNL     1       3.216   0.184  -0.227  1.00  0.00     0.024 A 
HETATM   16  C15 UNL     1       3.177   1.512  -0.028  1.00  0.00     0.094 A 
HETATM   17  C16 UNL     1       1.943   2.015   0.136  1.00  0.00     0.020 A 
HETATM   18  O2  UNL     1       0.585  -2.942   0.102  1.00  0.00    -0.300 OA
HETATM   19  C18 UNL     1       0.047  -4.253   0.264  1.00  0.00     0.304 A 
HETATM   20  O3  UNL     1      -1.352  -4.015   0.212  1.00  0.00    -0.300 OA
ENDROOT
BRANCH  16  21
HETATM   21  O1  UNL     1       4.262   2.352   0.034  1.00  0.00    -0.328 OA
HETATM   22  C17 UNL     1       5.552   1.798  -0.092  1.00  0.00     0.181 C 
ENDBRANCH  16  21
TORSDOF 1
