REMARK  4 active torsions:
REMARK  status: ('A' for Active; 'I' for Inactive)
REMARK    1  A    between atoms: C3_3  and  O4_25 
REMARK    2  A    between atoms: C4_4  and  O3_23 
REMARK    3  A    between atoms: C15_16  and  O2_21 
REMARK    4  A    between atoms: C16_17  and  O1_19 
ROOT
HETATM    1  C1  UNL     1       2.543   1.401  -0.431  1.00  0.00    -0.020 A 
HETATM    2  C2  UNL     1       3.867   1.330  -0.635  1.00  0.00     0.022 A 
HETATM    3  C3  UNL     1       4.687   0.440  -0.040  1.00  0.00     0.116 A 
HETATM    4  C4  UNL     1       4.131  -0.440   0.833  1.00  0.00     0.116 A 
HETATM    5  C5  UNL     1       2.798  -0.358   1.031  1.00  0.00     0.024 A 
HETATM    6  C6  UNL     1       1.995   0.540   0.439  1.00  0.00     0.007 A 
HETATM    7  C7  UNL     1       0.504   0.550   0.720  1.00  0.00     0.246 C 
HETATM    8  N1  UNL     1      -0.086   1.838   0.383  1.00  0.00     0.144 N 
HETATM    9  C8  UNL     1       0.199   2.211  -0.991  1.00  0.00     0.256 C 
HETATM   10  C9  UNL     1       1.710   2.433  -1.152  1.00  0.00     0.061 C 
HETATM   11  C10 UNL     1      -1.505   1.867   0.704  1.00  0.00     0.277 C 
HETATM   12  C11 UNL     1      -2.269   0.666   0.189  1.00  0.00     0.009 A 
HETATM   13  C12 UNL     1      -1.655  -0.482  -0.127  1.00  0.00    -0.020 A 
HETATM   14  C13 UNL     1      -0.158  -0.625  -0.019  1.00  0.00     0.064 C 
HETATM   15  C14 UNL     1      -2.409  -1.504  -0.556  1.00  0.00     0.022 A 
HETATM   16  C15 UNL     1      -3.749  -1.462  -0.691  1.00  0.00     0.116 A 
HETATM   17  C16 UNL     1      -4.376  -0.299  -0.373  1.00  0.00     0.116 A 
HETATM   18  C17 UNL     1      -3.604   0.722   0.056  1.00  0.00     0.024 A 
ENDROOT
BRANCH   3  19
HETATM   19  O4  UNL     1       6.017   0.536  -0.394  1.00  0.00    -0.326 OA
HETATM   20  C21 UNL     1       6.996  -0.308   0.161  1.00  0.00     0.181 C 
ENDBRANCH   3  19
BRANCH   4  21
HETATM   21  O3  UNL     1       4.902  -1.400   1.445  1.00  0.00    -0.326 OA
HETATM   22  C20 UNL     1       4.286  -2.511   2.055  1.00  0.00     0.181 C 
ENDBRANCH   4  21
BRANCH  16  23
HETATM   23  O2  UNL     1      -4.334  -2.627  -1.143  1.00  0.00    -0.326 OA
HETATM   24  C19 UNL     1      -5.725  -2.741  -1.317  1.00  0.00     0.181 C 
ENDBRANCH  16  23
BRANCH  17  25
HETATM   25  O1  UNL     1      -5.742  -0.189  -0.491  1.00  0.00    -0.326 OA
HETATM   26  C18 UNL     1      -6.386   1.026  -0.188  1.00  0.00     0.181 C 
ENDBRANCH  17  25
TORSDOF 4
