REMARK  6 active torsions:
REMARK  status: ('A' for Active; 'I' for Inactive)
REMARK    1  A    between atoms: C3_3  and  O3_8 
REMARK    2  A    between atoms: O3_8  and  C6_9 
REMARK    3  A    between atoms: C6_9  and  C7_10 
REMARK    4  A    between atoms: C11_14  and  O5_16 
REMARK    5  A    between atoms: O5_16  and  C12_17 
REMARK    6  A    between atoms: C12_17  and  C13_18 
ROOT
HETATM    1  C7  UNL     1       2.224   0.683   1.078  1.00  0.00     0.180 C 
HETATM    2  C8  UNL     1       2.796   1.287   2.349  1.00  0.00     0.215 C 
HETATM    3  C9  UNL     1       2.008   0.750   3.528  1.00  0.00     0.220 C 
HETATM    4  C10 UNL     1       2.079  -0.763   3.521  1.00  0.00     0.241 C 
HETATM    5  C11 UNL     1       1.614  -1.319   2.189  1.00  0.00     0.270 C 
HETATM    6  O4  UNL     1       2.332  -0.716   1.133  1.00  0.00    -0.326 OA
HETATM    7  O11 UNL     1       1.293  -1.259   4.577  1.00  0.00    -0.215 OA
HETATM    8  O12 UNL     1       2.557   1.245   4.722  1.00  0.00    -0.218 OA
HETATM    9  O13 UNL     1       2.671   2.688   2.343  1.00  0.00    -0.218 OA
ENDROOT
BRANCH   5  10
HETATM   10  O5  UNL     1       0.238  -1.078   1.991  1.00  0.00    -0.326 OA
BRANCH  10  11
HETATM   11  C12 UNL     1      -0.301  -1.673   0.837  1.00  0.00     0.177 C 
BRANCH  11  12
HETATM   12  C13 UNL     1      -1.693  -1.096   0.596  1.00  0.00     0.180 C 
HETATM   13  C14 UNL     1      -2.663  -1.418   1.734  1.00  0.00     0.215 C 
HETATM   14  C15 UNL     1      -4.086  -1.006   1.387  1.00  0.00     0.220 C 
HETATM   15  O10 UNL     1      -2.260  -0.728   2.896  1.00  0.00    -0.218 OA
HETATM   16  C16 UNL     1      -4.450  -1.535   0.015  1.00  0.00     0.244 C 
HETATM   17  O9  UNL     1      -5.007  -1.535   2.311  1.00  0.00    -0.218 OA
HETATM   18  C17 UNL     1      -3.408  -1.081  -0.969  1.00  0.00     0.303 C 
HETATM   19  O8  UNL     1      -5.707  -1.036  -0.365  1.00  0.00    -0.215 OA
HETATM   20  O6  UNL     1      -2.155  -1.607  -0.624  1.00  0.00    -0.324 OA
HETATM   21  O7  UNL     1      -3.592  -1.716  -2.219  1.00  0.00    -0.187 OA
ENDBRANCH  11  12
ENDBRANCH  10  11
ENDBRANCH   5  10
BRANCH   1  22
HETATM   22  C6  UNL     1       2.897   1.160  -0.204  1.00  0.00     0.177 C 
BRANCH  22  23
HETATM   23  O3  UNL     1       2.136   0.662  -1.279  1.00  0.00    -0.326 OA
BRANCH  23  24
HETATM   24  C3  UNL     1       2.519   1.141  -2.546  1.00  0.00     0.270 C 
HETATM   25  C2  UNL     1       1.880   0.307  -3.640  1.00  0.00     0.241 C 
HETATM   26  C1  UNL     1       0.380   0.523  -3.760  1.00  0.00     0.220 C 
HETATM   27  O14 UNL     1       2.479   0.662  -4.867  1.00  0.00    -0.215 OA
HETATM   28  C5  UNL     1       0.081   2.010  -3.782  1.00  0.00     0.215 C 
HETATM   29  O15 UNL     1      -0.286  -0.081  -2.676  1.00  0.00    -0.218 OA
HETATM   30  C4  UNL     1       0.767   2.728  -2.636  1.00  0.00     0.181 C 
HETATM   31  O2  UNL     1       0.536   2.554  -5.001  1.00  0.00    -0.218 OA
HETATM   32  O1  UNL     1       2.154   2.501  -2.655  1.00  0.00    -0.326 OA
ENDBRANCH  23  24
ENDBRANCH  22  23
ENDBRANCH   1  22
TORSDOF 6
