REMARK  7 active torsions:
REMARK  status: ('A' for Active; 'I' for Inactive)
REMARK    1  A    between atoms: C4_4  and  O11_32 
REMARK    2  A    between atoms: C9_11  and  O6_21 
REMARK    3  A    between atoms: C12_14  and  O4_17 
REMARK    4  A    between atoms: O4_17  and  C14_18 
REMARK    5  A    between atoms: O6_21  and  C16_22 
REMARK    6  A    between atoms: O11_32  and  C22_33 
REMARK    7  A    between atoms: C22_33  and  C23_34 
ROOT
HETATM    1  C1  UNL     1      -2.537   0.229   1.615  1.00  0.00    -0.011 C 
HETATM    2  C2  UNL     1      -2.267  -1.141   2.192  1.00  0.00     0.049 C 
HETATM    3  C3  UNL     1      -1.983  -1.885   0.858  1.00  0.00     0.171 C 
HETATM    4  C4  UNL     1      -1.190  -1.222  -0.351  1.00  0.00     0.104 C 
HETATM    5  C5  UNL     1       0.004  -0.174  -0.376  1.00  0.00     0.015 C 
HETATM    6  C6  UNL     1       0.796   0.244   0.920  1.00  0.00     0.098 C 
HETATM    7  C7  UNL     1      -0.097   0.851   2.041  1.00  0.00     0.190 C 
HETATM    8  C8  UNL     1      -1.538   1.330   1.845  1.00  0.00     0.227 C 
HETATM    9  O1  UNL     1      -2.014   2.109   2.940  1.00  0.00    -0.211 OA
HETATM   10  O2  UNL     1       0.401   1.042   3.130  1.00  0.00    -0.293 OA
HETATM   11  C9  UNL     1       1.822   1.420   0.697  1.00  0.00     0.131 C 
HETATM   12  C10 UNL     1       1.980   1.823  -0.767  1.00  0.00     0.063 C 
HETATM   13  C11 UNL     1       2.103   0.644  -1.704  1.00  0.00     0.149 C 
HETATM   14  C12 UNL     1       0.904  -0.313  -1.659  1.00  0.00     0.170 C 
HETATM   15  C13 UNL     1       2.026  -1.360  -1.610  1.00  0.00     0.176 C 
HETATM   16  O3  UNL     1       2.998  -0.368  -1.312  1.00  0.00    -0.351 OA
HETATM   17  C21 UNL     1       1.541  -0.996   1.485  1.00  0.00     0.014 C 
HETATM   18  C29 UNL     1      -3.422  -2.188   0.348  1.00  0.00     0.074 C 
HETATM   19  C30 UNL     1      -4.283  -0.907   0.228  1.00  0.00     0.173 C 
HETATM   20  C31 UNL     1      -3.574   0.343   0.755  1.00  0.00    -0.019 C 
HETATM   21  C32 UNL     1      -4.014   1.648   0.137  1.00  0.00     0.028 C 
HETATM   22  O13 UNL     1      -4.626  -0.746  -1.136  1.00  0.00    -0.219 OA
HETATM   23  O14 UNL     1      -1.366  -3.108   1.161  1.00  0.00    -0.219 OA
HETATM   24  C33 UNL     1      -3.524  -1.546   3.036  1.00  0.00     0.007 C 
HETATM   25  C34 UNL     1      -1.222  -1.364   3.310  1.00  0.00     0.007 C 
ENDROOT
BRANCH  11  26
HETATM   26  O6  UNL     1       3.116   1.133   1.171  1.00  0.00    -0.331 OA
BRANCH  26  27
HETATM   27  C16 UNL     1       3.461   1.673   2.425  1.00  0.00     0.270 C 
HETATM   28  O7  UNL     1       3.908   2.997   2.221  1.00  0.00    -0.326 OA
HETATM   29  C17 UNL     1       5.103   3.104   1.486  1.00  0.00     0.181 C 
HETATM   30  C18 UNL     1       6.229   2.308   2.118  1.00  0.00     0.215 C 
HETATM   31  C19 UNL     1       5.827   0.861   2.328  1.00  0.00     0.220 C 
HETATM   32  O10 UNL     1       6.571   2.888   3.357  1.00  0.00    -0.218 OA
HETATM   33  C20 UNL     1       4.512   0.804   3.081  1.00  0.00     0.241 C 
HETATM   34  O9  UNL     1       5.681   0.213   1.082  1.00  0.00    -0.218 OA
HETATM   35  O8  UNL     1       4.705   1.250   4.403  1.00  0.00    -0.215 OA
ENDBRANCH  26  27
ENDBRANCH  11  26
BRANCH   4  36
HETATM   36  O11 UNL     1      -0.932  -2.265  -1.253  1.00  0.00    -0.276 OA
BRANCH  36  37
HETATM   37  C22 UNL     1      -1.669  -2.586  -2.381  1.00  0.00     0.300 C 
HETATM   38  O12 UNL     1      -1.519  -3.747  -2.715  1.00  0.00    -0.259 OA
BRANCH  37  39
HETATM   39  C23 UNL     1      -2.516  -1.857  -3.184  1.00  0.00     0.064 A 
HETATM   40  C24 UNL     1      -2.711  -0.522  -3.131  1.00  0.00     0.005 A 
HETATM   41  C25 UNL     1      -3.567   0.123  -3.940  1.00  0.00     0.000 A 
HETATM   42  C26 UNL     1      -4.266  -0.551  -4.861  1.00  0.00     0.000 A 
HETATM   43  C27 UNL     1      -4.077  -1.873  -4.963  1.00  0.00     0.000 A 
HETATM   44  C28 UNL     1      -3.216  -2.501  -4.146  1.00  0.00     0.005 A 
ENDBRANCH  37  39
ENDBRANCH  36  37
ENDBRANCH   4  36
BRANCH  14  45
HETATM   45  O4  UNL     1       0.192  -0.252  -2.859  1.00  0.00    -0.298 OA
BRANCH  45  46
HETATM   46  C14 UNL     1       0.758  -0.364  -4.100  1.00  0.00     0.273 C 
HETATM   47  C15 UNL     1      -0.274  -0.193  -5.197  1.00  0.00     0.106 C 
HETATM   48  O5  UNL     1       1.926  -0.553  -4.352  1.00  0.00    -0.264 OA
ENDBRANCH  45  46
ENDBRANCH  14  45
TORSDOF 7
