REMARK  0 active torsions:
REMARK  status: ('A' for Active; 'I' for Inactive)
ROOT
HETATM    1  C1  UNL     1       0.288   1.539  -0.410  1.00  0.00    -0.004 A 
HETATM    2  C2  UNL     1       0.833   0.350  -0.092  1.00  0.00    -0.026 A 
HETATM    3  C3  UNL     1       0.016  -0.690   0.184  1.00  0.00    -0.025 A 
HETATM    4  C4  UNL     1      -1.317  -0.507   0.133  1.00  0.00     0.006 A 
HETATM    5  C5  UNL     1      -1.855   0.681  -0.184  1.00  0.00     0.068 A 
HETATM    6  C6  UNL     1      -1.041   1.711  -0.458  1.00  0.00     0.010 A 
HETATM    7  C7  UNL     1      -3.161   0.837  -0.228  1.00  0.00     0.101 C 
HETATM    8  N1  UNL     1      -4.310   0.977  -0.267  1.00  0.00    -0.191 NA
HETATM    9  C8  UNL     1       0.526  -2.068   0.552  1.00  0.00     0.031 C 
HETATM   10  C9  UNL     1       2.341   0.216  -0.054  1.00  0.00     0.031 C 
ENDROOT
TORSDOF 0
