REMARK  11 active torsions:
REMARK  status: ('A' for Active; 'I' for Inactive)
REMARK    1  A    between atoms: C4_5  and  C5_6 
REMARK    2  A    between atoms: C7_8  and  C8_9 
REMARK    3  A    between atoms: C10_11  and  C29_36 
REMARK    4  A    between atoms: C12_14  and  C13_15 
REMARK    5  A    between atoms: C14_16  and  C26_31 
REMARK    6  A    between atoms: C16_18  and  C17_20 
REMARK    7  A    between atoms: C20_23  and  C22_27 
REMARK    8  A    between atoms: C26_31  and  C27_32 
REMARK    9  A    between atoms: C27_32  and  C28_33 
REMARK   10  A    between atoms: C29_36  and  C30_37 
REMARK   11  A    between atoms: C30_37  and  C31_38 
ROOT
HETATM    1  C8  UNL     1       1.669   1.242  -1.281  1.00  0.00     0.079 A 
HETATM    2  C9  UNL     1       1.807  -0.193  -1.123  1.00  0.00    -0.007 A 
HETATM    3  C10 UNL     1       3.124  -0.471  -0.896  1.00  0.00    -0.006 A 
HETATM    4  C11 UNL     1       3.829   0.812  -0.962  1.00  0.00     0.079 A 
HETATM    5  N2  UNL     1       2.843   1.797  -1.225  1.00  0.00    -0.246 NA
HETATM    6  C12 UNL     1       5.106   1.241  -0.742  1.00  0.00     0.038 C 
HETATM    7  C32 UNL     1       0.684  -1.192  -1.131  1.00  0.00     0.032 C 
ENDROOT
BRANCH   6   8
HETATM    8  C13 UNL     1       6.324   0.505  -0.399  1.00  0.00     0.079 A 
HETATM    9  C14 UNL     1       7.413   0.949   0.351  1.00  0.00    -0.006 A 
HETATM   10  C15 UNL     1       8.300  -0.147   0.519  1.00  0.00    -0.007 A 
HETATM   11  C16 UNL     1       7.799  -1.217  -0.214  1.00  0.00     0.079 A 
HETATM   12  C25 UNL     1       9.457  -0.175   1.475  1.00  0.00     0.032 C 
HETATM   13  N3  UNL     1       6.608  -0.787  -0.741  1.00  0.00    -0.246 NA
BRANCH   9  14
HETATM   14  C26 UNL     1       7.575   2.331   0.945  1.00  0.00     0.039 C 
BRANCH  14  15
HETATM   15  C27 UNL     1       8.967   2.955   0.741  1.00  0.00     0.102 C 
BRANCH  15  16
HETATM   16  C28 UNL     1       9.108   4.436   1.042  1.00  0.00     0.186 C 
HETATM   17  O2  UNL     1      10.092   5.106   0.821  1.00  0.00    -0.647 OA
HETATM   18  O3  UNL     1       8.018   4.975   1.615  1.00  0.00    -0.647 OA
ENDBRANCH  15  16
ENDBRANCH  14  15
ENDBRANCH   9  14
BRANCH  11  19
HETATM   19  C17 UNL     1       8.179  -2.619  -0.371  1.00  0.00     0.038 C 
HETATM   20  C18 UNL     1       9.393  -3.214  -0.243  1.00  0.00     0.082 A 
HETATM   21  C19 UNL     1       9.639  -4.667  -0.300  1.00  0.00     0.001 A 
HETATM   22  N4  UNL     1      10.631  -2.580  -0.021  1.00  0.00    -0.208 NA
HETATM   23  C20 UNL     1      10.959  -4.876  -0.045  1.00  0.00     0.055 A 
HETATM   24  C24 UNL     1       8.605  -5.711  -0.623  1.00  0.00     0.033 C 
HETATM   25  C21 UNL     1      11.592  -3.543   0.098  1.00  0.00     0.279 A 
HETATM   26  O1  UNL     1      12.781  -3.303   0.302  1.00  0.00    -0.265 OA
BRANCH  23  27
HETATM   27  C22 UNL     1      11.749  -6.106   0.042  1.00  0.00     0.004 C 
HETATM   28  C23 UNL     1      11.255  -7.326   0.325  1.00  0.00     0.000 C 
ENDBRANCH  23  27
ENDBRANCH  11  19
ENDBRANCH   6   8
BRANCH   3  29
HETATM   29  C29 UNL     1       3.639  -1.845  -0.555  1.00  0.00     0.039 C 
BRANCH  29  30
HETATM   30  C30 UNL     1       4.087  -1.951   0.910  1.00  0.00     0.102 C 
BRANCH  30  31
HETATM   31  C31 UNL     1       4.634  -3.298   1.349  1.00  0.00     0.186 C 
HETATM   32  O4  UNL     1       4.750  -3.682   2.490  1.00  0.00    -0.647 OA
HETATM   33  O5  UNL     1       5.045  -4.059   0.321  1.00  0.00    -0.647 OA
ENDBRANCH  30  31
ENDBRANCH  29  30
ENDBRANCH   3  29
BRANCH   1  34
HETATM   34  C7  UNL     1       0.413   1.970  -1.470  1.00  0.00     0.038 C 
HETATM   35  C3  UNL     1       0.158   3.279  -1.202  1.00  0.00     0.086 A 
HETATM   36  N1  UNL     1      -1.093   3.845  -1.553  1.00  0.00    -0.208 NA
HETATM   37  C4  UNL     1       0.942   4.346  -0.554  1.00  0.00     0.018 A 
HETATM   38  C2  UNL     1      -1.068   5.177  -1.250  1.00  0.00     0.275 A 
HETATM   39  C1  UNL     1       0.227   5.497  -0.613  1.00  0.00     0.037 A 
HETATM   40  O6  UNL     1      -1.997   5.953  -1.466  1.00  0.00    -0.266 OA
HETATM   41  C33 UNL     1       0.591   6.847  -0.073  1.00  0.00     0.036 C 
BRANCH  37  42
HETATM   42  C5  UNL     1       2.240   4.243   0.150  1.00  0.00     0.001 C 
HETATM   43  C6  UNL     1       2.449   3.328   1.110  1.00  0.00     0.000 C 
ENDBRANCH  37  42
ENDBRANCH   1  34
TORSDOF 11
