REMARK  5 active torsions:
REMARK  status: ('A' for Active; 'I' for Inactive)
REMARK    1  A    between atoms: C2_2  and  O3_30 
REMARK    2  A    between atoms: O3_30  and  C28_31 
REMARK    3  A    between atoms: C29_33  and  C39_50 
REMARK    4  A    between atoms: C32_36  and  O5_37 
REMARK    5  A    between atoms: O5_37  and  C33_38 
ROOT
HETATM    1  C1  UNL     1      -0.810  -0.793  -4.114  1.00  0.00     0.030 C 
HETATM    2  C2  UNL     1      -1.791  -1.544  -3.213  1.00  0.00     0.122 C 
HETATM    3  C3  UNL     1      -0.997  -2.227  -2.091  1.00  0.00     0.051 C 
HETATM    4  C4  UNL     1       0.375  -1.617  -1.871  1.00  0.00    -0.047 C 
HETATM    5  C5  UNL     1       0.482  -0.097  -1.948  1.00  0.00     0.015 C 
HETATM    6  C6  UNL     1      -0.044   0.310  -3.359  1.00  0.00     0.006 C 
HETATM    7  C7  UNL     1       1.963   0.361  -1.765  1.00  0.00     0.004 C 
HETATM    8  C8  UNL     1       2.790  -0.504  -0.762  1.00  0.00     0.004 C 
HETATM    9  C9  UNL     1       2.828  -1.927  -1.357  1.00  0.00     0.025 C 
HETATM   10  C10 UNL     1       1.432  -2.416  -1.636  1.00  0.00    -0.035 C 
HETATM   11  C11 UNL     1       4.228   0.070  -0.693  1.00  0.00     0.003 C 
HETATM   12  C12 UNL     1       4.223   1.566  -0.360  1.00  0.00     0.003 C 
HETATM   13  C13 UNL     1       3.558   2.359  -1.484  1.00  0.00     0.000 C 
HETATM   14  C14 UNL     1       2.099   1.887  -1.563  1.00  0.00     0.000 C 
HETATM   15  C15 UNL     1       5.686   1.900  -0.055  1.00  0.00     0.032 C 
HETATM   16  C16 UNL     1       6.282   0.613   0.508  1.00  0.00     0.118 C 
HETATM   17  C17 UNL     1       5.238  -0.498   0.320  1.00  0.00     0.030 C 
HETATM   18  O1  UNL     1       6.590   0.809   1.859  1.00  0.00    -0.337 OA
HETATM   19  C18 UNL     1       6.072   2.034   2.315  1.00  0.00     0.187 C 
HETATM   20  C19 UNL     1       5.891   2.916   1.073  1.00  0.00     0.054 C 
HETATM   21  C20 UNL     1       7.101   3.811   0.746  1.00  0.00     0.005 C 
HETATM   22  C21 UNL     1       4.772   1.819   3.090  1.00  0.00     0.056 C 
HETATM   23  C22 UNL     1       4.988   1.090   4.420  1.00  0.00     0.007 C 
HETATM   24  C23 UNL     1       6.094   1.787   5.221  1.00  0.00     0.030 C 
HETATM   25  C24 UNL     1       7.322   1.913   4.323  1.00  0.00     0.145 C 
HETATM   26  O2  UNL     1       7.041   2.629   3.147  1.00  0.00    -0.335 OA
HETATM   27  C25 UNL     1       5.648   3.146   5.788  1.00  0.00     0.003 C 
HETATM   28  C26 UNL     1       2.165  -0.620   0.648  1.00  0.00     0.000 C 
HETATM   29  C27 UNL     1      -0.403   0.589  -0.877  1.00  0.00     0.004 C 
ENDROOT
BRANCH   2  30
HETATM   30  O3  UNL     1      -2.717  -0.621  -2.709  1.00  0.00    -0.331 OA
BRANCH  30  31
HETATM   31  C28 UNL     1      -3.877  -1.177  -2.127  1.00  0.00     0.267 C 
HETATM   32  O4  UNL     1      -4.919  -1.049  -3.071  1.00  0.00    -0.326 OA
HETATM   33  C29 UNL     1      -5.407   0.247  -3.295  1.00  0.00     0.184 C 
HETATM   34  C30 UNL     1      -5.789   0.964  -2.007  1.00  0.00     0.215 C 
HETATM   35  C31 UNL     1      -4.716   0.887  -0.938  1.00  0.00     0.217 C 
HETATM   36  O11 UNL     1      -6.979   0.403  -1.499  1.00  0.00    -0.218 OA
HETATM   37  C32 UNL     1      -4.187  -0.531  -0.784  1.00  0.00     0.207 C 
HETATM   38  O10 UNL     1      -3.659   1.762  -1.252  1.00  0.00    -0.218 OA
BRANCH  33  39
HETATM   39  C39 UNL     1      -4.518   1.058  -4.233  1.00  0.00     0.214 C 
HETATM   40  O12 UNL     1      -5.238   2.163  -4.742  1.00  0.00    -0.218 OA
ENDBRANCH  33  39
BRANCH  37  41
HETATM   41  O5  UNL     1      -5.124  -1.277  -0.054  1.00  0.00    -0.324 OA
BRANCH  41  42
HETATM   42  C33 UNL     1      -4.600  -2.411   0.611  1.00  0.00     0.270 C 
HETATM   43  O6  UNL     1      -5.468  -3.482   0.305  1.00  0.00    -0.329 OA
HETATM   44  C34 UNL     1      -6.756  -3.346   0.846  1.00  0.00     0.151 C 
HETATM   45  C35 UNL     1      -6.679  -3.248   2.362  1.00  0.00     0.212 C 
HETATM   46  C38 UNL     1      -7.585  -4.549   0.394  1.00  0.00     0.035 C 
HETATM   47  C36 UNL     1      -5.813  -2.076   2.772  1.00  0.00     0.220 C 
HETATM   48  O9  UNL     1      -7.955  -3.054   2.923  1.00  0.00    -0.218 OA
HETATM   49  C37 UNL     1      -4.462  -2.168   2.099  1.00  0.00     0.241 C 
HETATM   50  O8  UNL     1      -5.636  -2.117   4.168  1.00  0.00    -0.218 OA
HETATM   51  O7  UNL     1      -3.756  -3.228   2.700  1.00  0.00    -0.215 OA
ENDBRANCH  41  42
ENDBRANCH  37  41
ENDBRANCH  30  31
ENDBRANCH   2  30
TORSDOF 5
