REMARK  3 active torsions:
REMARK  status: ('A' for Active; 'I' for Inactive)
REMARK    1  A    between atoms: C2_2  and  C8_9 
REMARK    2  A    between atoms: C10_11  and  C12_14 
REMARK    3  A    between atoms: C12_14  and  C13_15 
ROOT
HETATM    1  C8  UNL     1       3.817  -0.556  -0.700  1.00  0.00     0.005 A 
HETATM    2  C9  UNL     1       4.234   0.694  -0.140  1.00  0.00     0.018 A 
HETATM    3  C10 UNL     1       5.599   0.678  -0.116  1.00  0.00     0.077 A 
HETATM    4  O2  UNL     1       6.061  -0.506  -0.618  1.00  0.00    -0.310 OA
HETATM    5  C11 UNL     1       4.966  -1.239  -0.964  1.00  0.00     0.118 A 
ENDROOT
BRANCH   1   6
HETATM    6  C2  UNL     1       2.412  -1.024  -0.960  1.00  0.00     0.036 C 
HETATM    7  C1  UNL     1       1.643  -0.044  -1.854  1.00  0.00     0.074 C 
HETATM    8  C6  UNL     1       0.219  -0.505  -2.108  1.00  0.00     0.169 C 
HETATM    9  C5  UNL     1      -0.452  -1.323  -1.064  1.00  0.00     0.009 C 
HETATM   10  O1  UNL     1      -0.363  -0.184  -3.137  1.00  0.00    -0.292 OA
HETATM   11  C4  UNL     1       0.217  -1.645   0.061  1.00  0.00    -0.027 C 
HETATM   12  C7  UNL     1      -1.883  -1.746  -1.290  1.00  0.00     0.034 C 
HETATM   13  C3  UNL     1       1.641  -1.248   0.346  1.00  0.00     0.031 C 
ENDBRANCH   1   6
BRANCH   3  14
HETATM   14  C12 UNL     1       6.490   1.786   0.368  1.00  0.00     0.051 C 
BRANCH  14  15
HETATM   15  C13 UNL     1       7.641   1.286   1.261  1.00  0.00     0.006 C 
HETATM   16  C14 UNL     1       7.111   0.589   2.525  1.00  0.00     0.000 C 
HETATM   17  C15 UNL     1       8.567   2.453   1.647  1.00  0.00     0.000 C 
ENDBRANCH  14  15
ENDBRANCH   3  14
TORSDOF 3
