REMARK  8 active torsions:
REMARK  status: ('A' for Active; 'I' for Inactive)
REMARK    1  A    between atoms: C1_1  and  C39_51 
REMARK    2  A    between atoms: C5_5  and  O2_7 
REMARK    3  A    between atoms: O2_7  and  C6_8 
REMARK    4  A    between atoms: C7_9  and  C38_46 
REMARK    5  A    between atoms: C8_11  and  O6_16 
REMARK    6  A    between atoms: O6_16  and  C11_17 
REMARK    7  A    between atoms: C27_33  and  C28_34 
REMARK    8  A    between atoms: C28_34  and  C30_36 
ROOT
HETATM    1  C11 UNL     1      -2.551   0.680  -0.959  1.00  0.00     0.118 C 
HETATM    2  C12 UNL     1      -2.728   2.167  -1.260  1.00  0.00     0.030 C 
HETATM    3  C13 UNL     1      -1.383   2.894  -1.079  1.00  0.00     0.003 C 
HETATM    4  C14 UNL     1      -0.212   2.310  -1.909  1.00  0.00     0.007 C 
HETATM    5  C15 UNL     1      -0.178   0.761  -1.764  1.00  0.00     0.060 C 
HETATM    6  C16 UNL     1      -1.557   0.100  -1.967  1.00  0.00     0.037 C 
HETATM    7  C17 UNL     1       0.431   0.279  -0.450  1.00  0.00     0.150 C 
HETATM    8  C18 UNL     1       1.716   0.931  -0.002  1.00  0.00     0.065 C 
HETATM    9  C19 UNL     1       1.625   2.461  -0.073  1.00  0.00     0.007 C 
HETATM   10  C20 UNL     1       1.170   2.909  -1.483  1.00  0.00     0.001 C 
HETATM   11  C21 UNL     1       1.295   4.442  -1.641  1.00  0.00     0.000 C 
HETATM   12  C22 UNL     1       2.687   4.986  -1.257  1.00  0.00     0.000 C 
HETATM   13  C23 UNL     1       3.092   4.583   0.175  1.00  0.00     0.000 C 
HETATM   14  C24 UNL     1       2.996   3.052   0.279  1.00  0.00     0.000 C 
HETATM   15  C25 UNL     1       3.569   2.742   1.667  1.00  0.00     0.000 C 
HETATM   16  C26 UNL     1       4.638   3.833   1.873  1.00  0.00     0.000 C 
HETATM   17  C27 UNL     1       4.572   4.774   0.642  1.00  0.00     0.002 C 
HETATM   18  C36 UNL     1       2.157   5.336   1.157  1.00  0.00     0.000 C 
HETATM   19  O7  UNL     1      -0.030  -0.641   0.187  1.00  0.00    -0.296 OA
HETATM   20  C37 UNL     1      -0.457   2.655  -3.402  1.00  0.00     0.000 C 
ENDROOT
BRANCH   1  21
HETATM   21  O6  UNL     1      -3.785   0.020  -0.990  1.00  0.00    -0.332 OA
BRANCH  21  22
HETATM   22  C8  UNL     1      -3.727  -1.264  -0.397  1.00  0.00     0.270 C 
HETATM   23  O3  UNL     1      -4.230  -2.166  -1.355  1.00  0.00    -0.326 OA
HETATM   24  C7  UNL     1      -4.122  -3.500  -0.926  1.00  0.00     0.181 C 
HETATM   25  C6  UNL     1      -4.863  -3.743   0.402  1.00  0.00     0.181 C 
HETATM   26  C10 UNL     1      -4.462  -2.689   1.432  1.00  0.00     0.217 C 
HETATM   27  C9  UNL     1      -4.603  -1.311   0.825  1.00  0.00     0.241 C 
HETATM   28  O4  UNL     1      -5.271  -2.713   2.581  1.00  0.00    -0.218 OA
HETATM   29  O5  UNL     1      -4.176  -0.355   1.761  1.00  0.00    -0.215 OA
BRANCH  24  30
HETATM   30  C38 UNL     1      -4.672  -4.392  -2.034  1.00  0.00     0.214 C 
HETATM   31  O8  UNL     1      -3.888  -4.251  -3.202  1.00  0.00    -0.218 OA
ENDBRANCH  24  30
BRANCH  25  32
HETATM   32  O2  UNL     1      -4.502  -5.021   0.855  1.00  0.00    -0.326 OA
BRANCH  32  33
HETATM   33  C5  UNL     1      -5.449  -5.654   1.689  1.00  0.00     0.270 C 
HETATM   34  C4  UNL     1      -4.710  -6.678   2.518  1.00  0.00     0.241 C 
HETATM   35  C3  UNL     1      -5.671  -7.567   3.281  1.00  0.00     0.220 C 
HETATM   36  O9  UNL     1      -3.930  -7.458   1.641  1.00  0.00    -0.215 OA
HETATM   37  C2  UNL     1      -6.764  -8.076   2.355  1.00  0.00     0.215 C 
HETATM   38  O10 UNL     1      -6.236  -6.831   4.340  1.00  0.00    -0.218 OA
HETATM   39  C1  UNL     1      -7.360  -6.997   1.456  1.00  0.00     0.184 C 
HETATM   40  O11 UNL     1      -6.203  -9.080   1.536  1.00  0.00    -0.218 OA
HETATM   41  O1  UNL     1      -6.347  -6.283   0.802  1.00  0.00    -0.326 OA
BRANCH  39  42
HETATM   42  C39 UNL     1      -8.362  -6.067   2.129  1.00  0.00     0.214 C 
HETATM   43  O12 UNL     1      -9.515  -6.794   2.503  1.00  0.00    -0.218 OA
ENDBRANCH  39  42
ENDBRANCH  32  33
ENDBRANCH  25  32
ENDBRANCH  21  22
ENDBRANCH   1  21
BRANCH  17  44
HETATM   44  C28 UNL     1       5.658   4.590  -0.467  1.00  0.00     0.034 C 
HETATM   45  C29 UNL     1       6.031   5.990  -1.007  1.00  0.00     0.002 C 
BRANCH  44  46
HETATM   46  C30 UNL     1       6.928   3.759  -0.130  1.00  0.00     0.257 C 
HETATM   47  N1  UNL     1       7.999   4.044  -1.095  1.00  0.00     0.337 N 
HETATM   48  C31 UNL     1       9.246   3.324  -0.837  1.00  0.00     0.290 C 
HETATM   49  C32 UNL     1       9.055   1.800  -0.883  1.00  0.00     0.036 C 
HETATM   50  C33 UNL     1       7.928   1.417   0.087  1.00  0.00     0.004 C 
HETATM   51  C35 UNL     1       8.791   1.297  -2.313  1.00  0.00     0.002 C 
HETATM   52  C34 UNL     1       6.662   2.238  -0.187  1.00  0.00     0.036 C 
ENDBRANCH  44  46
ENDBRANCH  17  44
TORSDOF 8
