REMARK  1 active torsions:
REMARK  status: ('A' for Active; 'I' for Inactive)
REMARK    1  A    between atoms: C7_8  and  C10_12 
ROOT
HETATM    1  C1  UNL     1      -4.494   3.427   0.081  1.00  0.00     0.135 A 
HETATM    2  C2  UNL     1      -3.997   4.644  -0.181  1.00  0.00     0.055 A 
HETATM    3  C3  UNL     1      -2.687   4.866  -0.384  1.00  0.00     0.138 A 
HETATM    4  C4  UNL     1      -1.840   3.814  -0.323  1.00  0.00     0.087 A 
HETATM    5  C5  UNL     1      -2.298   2.575  -0.053  1.00  0.00     0.107 A 
HETATM    6  C6  UNL     1      -3.619   2.414   0.142  1.00  0.00     0.052 A 
HETATM    7  O1  UNL     1      -1.492   1.477   0.033  1.00  0.00    -0.307 OA
HETATM    8  C7  UNL     1      -0.158   1.639  -0.224  1.00  0.00     0.103 A 
HETATM    9  C8  UNL     1       0.297   2.879  -0.489  1.00  0.00     0.067 A 
HETATM   10  C9  UNL     1      -0.505   3.976  -0.536  1.00  0.00     0.202 A 
HETATM   11  O2  UNL     1       0.011   5.045  -0.781  1.00  0.00    -0.286 OA
HETATM   12  O4  UNL     1      -2.289   6.143  -0.647  1.00  0.00    -0.190 OA
HETATM   13  O5  UNL     1      -5.824   3.223   0.279  1.00  0.00    -0.190 OA
ENDROOT
BRANCH   8  14
HETATM   14  C10 UNL     1       0.658   0.553  -0.196  1.00  0.00     0.023 A 
HETATM   15  C11 UNL     1       1.980   0.560  -0.455  1.00  0.00     0.004 A 
HETATM   16  C12 UNL     1       2.714  -0.562  -0.418  1.00  0.00     0.024 A 
HETATM   17  C13 UNL     1       2.194  -1.765  -0.117  1.00  0.00     0.094 A 
HETATM   18  C14 UNL     1       0.876  -1.789   0.157  1.00  0.00     0.022 A 
HETATM   19  O3  UNL     1       3.021  -2.857  -0.103  1.00  0.00    -0.332 OA
HETATM   20  C15 UNL     1       0.144  -0.658   0.109  1.00  0.00     0.004 A 
HETATM   21  C16 UNL     1       0.295  -2.955   0.481  1.00  0.00    -0.000 A 
HETATM   22  C17 UNL     1       1.016  -4.080   0.534  1.00  0.00     0.001 A 
HETATM   23  C18 UNL     1       2.492  -4.114   0.229  1.00  0.00     0.117 A 
HETATM   24  C19 UNL     1       3.247  -4.631   1.459  1.00  0.00     0.035 C 
HETATM   25  C20 UNL     1       2.724  -5.054  -0.961  1.00  0.00     0.035 C 
ENDBRANCH   8  14
TORSDOF 1
