REMARK  13 active torsions:
REMARK  status: ('A' for Active; 'I' for Inactive)
REMARK    1  A    between atoms: C3_4  and  O2_5 
REMARK    2  A    between atoms: O2_5  and  C4_6 
REMARK    3  A    between atoms: C6_9  and  O4_10 
REMARK    4  A    between atoms: O4_10  and  C7_11 
REMARK    5  A    between atoms: C7_11  and  C8_13 
REMARK    6  A    between atoms: C15_20  and  C21_28 
REMARK    7  A    between atoms: C24_32  and  O9_33 
REMARK    8  A    between atoms: O9_33  and  C25_34 
REMARK    9  A    between atoms: C28_38  and  O11_39 
REMARK   10  A    between atoms: O11_39  and  C29_40 
REMARK   11  A    between atoms: C31_43  and  C32_44 
REMARK   12  A    between atoms: C32_44  and  O13_45 
REMARK   13  A    between atoms: O13_45  and  C33_46 
ROOT
HETATM    1  O1  UNL     1       1.112  -1.363  -3.038  1.00  0.00    -0.223 OA
HETATM    2  C1  UNL     1       0.471  -0.905  -1.866  1.00  0.00     0.164 C 
HETATM    3  C2  UNL     1      -0.429   0.353  -2.310  1.00  0.00     0.086 C 
HETATM    4  C3  UNL     1      -0.578   1.818  -1.633  1.00  0.00     0.173 C 
HETATM    5  C6  UNL     1      -1.172   1.575   0.056  1.00  0.00     0.104 C 
HETATM    6  C14 UNL     1      -2.135  -0.123   0.424  1.00  0.00    -0.002 C 
HETATM    7  C15 UNL     1      -1.527  -1.914   0.115  1.00  0.00     0.079 C 
HETATM    8  C16 UNL     1      -0.412  -2.135  -1.225  1.00  0.00     0.186 C 
HETATM    9  O6  UNL     1      -0.981  -2.839  -2.317  1.00  0.00    -0.220 OA
HETATM   10  C17 UNL     1      -2.840  -2.688  -0.014  1.00  0.00     0.046 C 
HETATM   11  C18 UNL     1      -3.947  -1.778   0.527  1.00  0.00     0.171 C 
HETATM   12  O7  UNL     1      -4.998  -2.204  -0.350  1.00  0.00    -0.219 OA
HETATM   13  C19 UNL     1      -3.467  -0.318   0.620  1.00  0.00    -0.016 C 
HETATM   14  C20 UNL     1      -4.221   0.915   1.119  1.00  0.00     0.029 C 
HETATM   15  C24 UNL     1      -1.488  -0.034  -1.347  1.00  0.00     0.132 C 
HETATM   16  C27 UNL     1      -0.269  -0.275   0.187  1.00  0.00     0.061 C 
HETATM   17  C28 UNL     1       1.197  -0.223   0.297  1.00  0.00     0.132 C 
HETATM   18  C31 UNL     1       1.756  -0.667  -1.022  1.00  0.00     0.089 C 
HETATM   19  C35 UNL     1      -0.919   0.287  -3.781  1.00  0.00     0.008 C 
ENDROOT
BRANCH   5  20
HETATM   20  O4  UNL     1      -0.535   2.411   1.198  1.00  0.00    -0.275 OA
BRANCH  20  21
HETATM   21  C7  UNL     1       0.142   1.895   2.436  1.00  0.00     0.299 C 
HETATM   22  O5  UNL     1      -0.551   2.048   3.444  1.00  0.00    -0.259 OA
BRANCH  21  23
HETATM   23  C8  UNL     1       1.373   1.313   2.770  1.00  0.00     0.055 C 
HETATM   24  C9  UNL     1       2.527   1.135   1.766  1.00  0.00    -0.021 C 
HETATM   25  C10 UNL     1       3.691   0.204   2.002  1.00  0.00     0.026 C 
HETATM   26  C11 UNL     1       3.890  -0.438   3.338  1.00  0.00     0.009 C 
HETATM   27  C12 UNL     1       2.931  -0.094   4.468  1.00  0.00     0.026 C 
HETATM   28  C13 UNL     1       1.681   0.721   4.152  1.00  0.00    -0.021 C 
ENDBRANCH  21  23
ENDBRANCH  20  21
ENDBRANCH   5  20
BRANCH   4  29
HETATM   29  O2  UNL     1       0.694   2.328  -1.962  1.00  0.00    -0.297 OA
BRANCH  29  30
HETATM   30  C4  UNL     1       0.949   3.352  -2.858  1.00  0.00     0.273 C 
HETATM   31  O3  UNL     1       1.889   3.314  -3.606  1.00  0.00    -0.264 OA
HETATM   32  C5  UNL     1       0.181   4.635  -2.659  1.00  0.00     0.106 C 
ENDBRANCH  29  30
ENDBRANCH   4  29
BRANCH   7  33
HETATM   33  C21 UNL     1      -0.777  -2.856   1.425  1.00  0.00     0.133 C 
HETATM   34  C22 UNL     1      -1.055  -4.374   1.653  1.00  0.00     0.033 C 
HETATM   35  C23 UNL     1      -1.021  -2.297   2.861  1.00  0.00     0.033 C 
HETATM   36  O8  UNL     1       0.620  -3.016   1.215  1.00  0.00    -0.226 OA
ENDBRANCH   7  33
BRANCH  15  37
HETATM   37  O9  UNL     1      -2.589   0.997  -1.534  1.00  0.00    -0.304 OA
BRANCH  37  38
HETATM   38  C25 UNL     1      -3.774   1.101  -2.229  1.00  0.00     0.272 C 
HETATM   39  O10 UNL     1      -4.209   2.198  -2.568  1.00  0.00    -0.264 OA
HETATM   40  C26 UNL     1      -4.632  -0.102  -2.381  1.00  0.00     0.106 C 
ENDBRANCH  37  38
ENDBRANCH  15  37
BRANCH  18  41
HETATM   41  C32 UNL     1       2.688   0.424  -1.558  1.00  0.00     0.157 C 
BRANCH  41  42
HETATM   42  O13 UNL     1       4.035   0.234  -1.258  1.00  0.00    -0.302 OA
BRANCH  42  43
HETATM   43  C33 UNL     1       4.965   1.209  -1.551  1.00  0.00     0.272 C 
HETATM   44  O14 UNL     1       6.156   0.967  -1.505  1.00  0.00    -0.264 OA
HETATM   45  C34 UNL     1       4.496   2.628  -1.847  1.00  0.00     0.106 C 
ENDBRANCH  42  43
ENDBRANCH  41  42
ENDBRANCH  18  41
BRANCH  17  46
HETATM   46  O11 UNL     1       1.619  -0.805   1.536  1.00  0.00    -0.304 OA
BRANCH  46  47
HETATM   47  C29 UNL     1       2.144  -0.362   2.805  1.00  0.00     0.272 C 
HETATM   48  O12 UNL     1       1.852  -1.406   3.494  1.00  0.00    -0.264 OA
HETATM   49  C30 UNL     1       3.239   1.339   3.402  1.00  0.00     0.106 C 
ENDBRANCH  46  47
ENDBRANCH  17  46
TORSDOF 13
