REMARK  2 active torsions:
REMARK  status: ('A' for Active; 'I' for Inactive)
REMARK    1  A    between atoms: C7_7  and  C12_14 
REMARK    2  A    between atoms: C13_15  and  C14_16 
ROOT
HETATM    1  C1  UNL     1       0.964   1.675  -1.426  1.00  0.00     0.000 C 
HETATM    2  C2  UNL     1       1.504   0.574  -2.343  1.00  0.00     0.000 C 
HETATM    3  C3  UNL     1       1.200  -0.840  -1.799  1.00  0.00     0.003 C 
HETATM    4  C4  UNL     1      -0.338  -0.999  -1.536  1.00  0.00     0.034 C 
HETATM    5  C5  UNL     1      -1.125   0.186  -0.892  1.00  0.00     0.010 C 
HETATM    6  C6  UNL     1      -0.559   1.562  -1.342  1.00  0.00     0.001 C 
HETATM    7  C7  UNL     1      -1.276   0.061   0.656  1.00  0.00     0.043 C 
HETATM    8  C8  UNL     1      -1.461  -1.356   1.171  1.00  0.00    -0.008 C 
HETATM    9  C9  UNL     1      -1.726  -2.423   0.144  1.00  0.00     0.201 C 
HETATM   10  C10 UNL     1      -0.707  -2.383  -0.975  1.00  0.00     0.186 C 
HETATM   11  O1  UNL     1      -1.189  -3.225  -1.997  1.00  0.00    -0.220 OA
HETATM   12  O2  UNL     1      -1.700  -3.728   0.695  1.00  0.00    -0.216 OA
HETATM   13  C11 UNL     1      -1.478  -1.617   2.489  1.00  0.00    -0.006 C 
HETATM   14  C18 UNL     1      -2.576   0.227  -1.482  1.00  0.00     0.001 C 
HETATM   15  C19 UNL     1       1.643  -1.851  -2.892  1.00  0.00     0.000 C 
HETATM   16  C20 UNL     1       2.134  -1.098  -0.593  1.00  0.00     0.000 C 
ENDROOT
BRANCH   7  17
HETATM   17  C12 UNL     1      -0.183   0.737   1.454  1.00  0.00    -0.022 C 
HETATM   18  C13 UNL     1      -0.239   2.000   1.907  1.00  0.00    -0.002 C 
BRANCH  18  19
HETATM   19  C14 UNL     1       0.745   2.602   2.589  1.00  0.00     0.026 A 
HETATM   20  C15 UNL     1       0.741   3.859   3.056  1.00  0.00     0.029 A 
HETATM   21  C16 UNL     1       1.931   4.002   3.651  1.00  0.00     0.123 A 
HETATM   22  O3  UNL     1       2.603   2.975   3.575  1.00  0.00    -0.303 OA
HETATM   23  C17 UNL     1       1.946   2.135   2.961  1.00  0.00     0.123 A 
ENDBRANCH  18  19
ENDBRANCH   7  17
TORSDOF 2
