REMARK  15 active torsions:
REMARK  status: ('A' for Active; 'I' for Inactive)
REMARK    1  A    between atoms: C1_1  and  C2_2 
REMARK    2  A    between atoms: C2_2  and  O2_4 
REMARK    3  A    between atoms: O2_4  and  N1_5 
REMARK    4  A    between atoms: N1_5  and  C3_6 
REMARK    5  A    between atoms: C3_6  and  C4_7 
REMARK    6  A    between atoms: C3_6  and  C37_52 
REMARK    7  A    between atoms: C4_7  and  C5_9 
REMARK    8  A    between atoms: C5_9  and  C6_11 
REMARK    9  A    between atoms: C12_18  and  O13_41 
REMARK   10  A    between atoms: C16_22  and  O6_23 
REMARK   11  A    between atoms: O6_23  and  C17_24 
REMARK   12  A    between atoms: C24_33  and  O10_36 
REMARK   13  A    between atoms: O10_36  and  C26_37 
REMARK   14  A    between atoms: O13_41  and  C28_42 
REMARK   15  A    between atoms: C28_42  and  C29_43 
ROOT
HETATM    1  C6  UNL     1      -0.343  -0.807   0.810  1.00  0.00     0.081 C 
HETATM    2  C7  UNL     1       0.032   0.661   0.841  1.00  0.00    -0.042 C 
HETATM    3  C8  UNL     1       1.332   1.022   0.798  1.00  0.00    -0.018 C 
HETATM    4  C9  UNL     1       2.389  -0.054   0.817  1.00  0.00     0.051 C 
HETATM    5  C10 UNL     1       2.028  -1.072  -0.264  1.00  0.00     0.156 C 
HETATM    6  C11 UNL     1       0.702  -1.729   0.158  1.00  0.00     0.045 C 
HETATM    7  O5  UNL     1       2.994  -2.095  -0.208  1.00  0.00    -0.223 OA
HETATM    8  C12 UNL     1       2.036  -0.565  -1.735  1.00  0.00     0.155 C 
HETATM    9  C13 UNL     1       1.645   0.902  -2.116  1.00  0.00     0.067 C 
HETATM   10  C14 UNL     1       2.672   2.096  -1.901  1.00  0.00     0.053 C 
HETATM   11  C15 UNL     1       2.288   2.992  -0.676  1.00  0.00     0.016 C 
HETATM   12  C16 UNL     1       1.839   2.447   0.692  1.00  0.00     0.163 C 
HETATM   13  C19 UNL     1       2.390   4.340  -0.722  1.00  0.00     0.150 C 
HETATM   14  O8  UNL     1       2.091   5.142   0.335  1.00  0.00    -0.189 OA
HETATM   15  C20 UNL     1       4.151   1.674  -1.682  1.00  0.00     0.007 C 
HETATM   16  C21 UNL     1       2.735   2.980  -3.188  1.00  0.00     0.158 C 
HETATM   17  C22 UNL     1       2.656   2.205  -4.496  1.00  0.00     0.065 C 
HETATM   18  C23 UNL     1       1.212   1.767  -4.623  1.00  0.00     0.146 C 
HETATM   19  C24 UNL     1       0.792   0.911  -3.425  1.00  0.00     0.156 C 
HETATM   20  C25 UNL     1       1.008  -0.204  -4.480  1.00  0.00     0.172 C 
HETATM   21  O9  UNL     1       1.060   0.720  -5.545  1.00  0.00    -0.351 OA
HETATM   22  O12 UNL     1       3.910   3.761  -3.250  1.00  0.00    -0.223 OA
HETATM   23  C35 UNL     1       2.579  -0.628   2.236  1.00  0.00     0.007 C 
HETATM   24  C36 UNL     1      -1.126   1.627   0.969  1.00  0.00     0.026 C 
ENDROOT
BRANCH   1  25
HETATM   25  C5  UNL     1      -1.710  -1.151   0.234  1.00  0.00     0.186 C 
HETATM   26  O4  UNL     1      -2.247  -0.524  -0.650  1.00  0.00    -0.293 OA
BRANCH  25  27
HETATM   27  C4  UNL     1      -2.432  -2.406   0.706  1.00  0.00     0.238 C 
HETATM   28  O3  UNL     1      -3.375  -2.722  -0.306  1.00  0.00    -0.213 OA
BRANCH  27  29
HETATM   29  C3  UNL     1      -3.175  -2.249   2.036  1.00  0.00     0.190 C 
BRANCH  29  30
HETATM   30  N1  UNL     1      -3.995  -1.038   2.005  1.00  0.00    -0.144 NA
BRANCH  30  31
HETATM   31  O2  UNL     1      -5.151  -1.138   1.373  1.00  0.00    -0.173 OA
BRANCH  31  32
HETATM   32  C2  UNL     1      -6.170  -1.323   2.275  1.00  0.00     0.318 C 
HETATM   33  O1  UNL     1      -6.640  -2.438   2.389  1.00  0.00    -0.257 OA
BRANCH  32  34
HETATM   34  C1  UNL     1      -6.639  -0.319   3.073  1.00  0.00     0.065 A 
HETATM   35  C43 UNL     1      -7.614  -0.550   3.974  1.00  0.00     0.005 A 
HETATM   36  C44 UNL     1      -8.066   0.434   4.767  1.00  0.00     0.000 A 
HETATM   37  C45 UNL     1      -7.552   1.669   4.671  1.00  0.00     0.000 A 
HETATM   38  C46 UNL     1      -6.585   1.912   3.775  1.00  0.00     0.000 A 
HETATM   39  C47 UNL     1      -6.133   0.927   2.983  1.00  0.00     0.005 A 
ENDBRANCH  32  34
ENDBRANCH  31  32
ENDBRANCH  30  31
ENDBRANCH  29  30
BRANCH  29  40
HETATM   40  C37 UNL     1      -2.229  -2.228   3.227  1.00  0.00     0.005 A 
HETATM   41  C38 UNL     1      -1.624  -3.370   3.605  1.00  0.00    -0.002 A 
HETATM   42  C39 UNL     1      -0.764  -3.402   4.634  1.00  0.00    -0.000 A 
HETATM   43  C40 UNL     1      -0.489  -2.278   5.311  1.00  0.00    -0.000 A 
HETATM   44  C41 UNL     1      -1.082  -1.130   4.950  1.00  0.00    -0.000 A 
HETATM   45  C42 UNL     1      -1.942  -1.109   3.920  1.00  0.00    -0.002 A 
ENDBRANCH  29  40
ENDBRANCH  27  29
ENDBRANCH  25  27
ENDBRANCH   1  25
BRANCH  12  46
HETATM   46  O6  UNL     1       2.832   2.719   1.670  1.00  0.00    -0.296 OA
BRANCH  46  47
HETATM   47  C17 UNL     1       2.418   2.804   2.965  1.00  0.00     0.273 C 
HETATM   48  C18 UNL     1       3.568   3.218   3.859  1.00  0.00     0.106 C 
HETATM   49  O7  UNL     1       1.291   2.593   3.354  1.00  0.00    -0.264 OA
ENDBRANCH  46  47
ENDBRANCH  12  46
BRANCH   8  50
HETATM   50  O13 UNL     1       3.271  -0.845  -2.322  1.00  0.00    -0.298 OA
BRANCH  50  51
HETATM   51  C28 UNL     1       3.739  -1.983  -2.949  1.00  0.00     0.296 C 
HETATM   52  O14 UNL     1       4.892  -1.852  -3.316  1.00  0.00    -0.259 OA
BRANCH  51  53
HETATM   53  C29 UNL     1       3.185  -3.209  -3.228  1.00  0.00     0.063 A 
HETATM   54  C30 UNL     1       3.929  -4.131  -3.883  1.00  0.00     0.005 A 
HETATM   55  C31 UNL     1       3.465  -5.350  -4.200  1.00  0.00     0.000 A 
HETATM   56  C32 UNL     1       2.216  -5.705  -3.869  1.00  0.00     0.000 A 
HETATM   57  C33 UNL     1       1.454  -4.819  -3.217  1.00  0.00     0.000 A 
HETATM   58  C34 UNL     1       1.938  -3.605  -2.908  1.00  0.00     0.005 A 
ENDBRANCH  51  53
ENDBRANCH  50  51
ENDBRANCH   8  50
BRANCH  19  59
HETATM   59  O10 UNL     1      -0.585   1.005  -3.205  1.00  0.00    -0.302 OA
BRANCH  59  60
HETATM   60  C26 UNL     1      -1.088   2.191  -2.769  1.00  0.00     0.272 C 
HETATM   61  O11 UNL     1      -0.425   3.149  -2.442  1.00  0.00    -0.264 OA
HETATM   62  C27 UNL     1      -2.602   2.176  -2.804  1.00  0.00     0.106 C 
ENDBRANCH  59  60
ENDBRANCH  19  59
TORSDOF 15
