REMARK  3 active torsions:
REMARK  status: ('A' for Active; 'I' for Inactive)
REMARK    1  A    between atoms: C13_15  and  C15_18 
REMARK    2  A    between atoms: C15_18  and  C16_19 
REMARK    3  A    between atoms: C16_19  and  C17_20 
ROOT
HETATM    1  C1  UNL     1      -3.850  -2.060   0.619  1.00  0.00     0.000 A 
HETATM    2  C2  UNL     1      -4.748  -1.099   0.376  1.00  0.00     0.002 A 
HETATM    3  C3  UNL     1      -4.376   0.185   0.471  1.00  0.00     0.017 A 
HETATM    4  C4  UNL     1      -3.117   0.537   0.802  1.00  0.00     0.065 A 
HETATM    5  C5  UNL     1      -2.209  -0.430   1.046  1.00  0.00     0.038 A 
HETATM    6  C6  UNL     1      -2.597  -1.720   0.951  1.00  0.00     0.003 A 
HETATM    7  C7  UNL     1      -0.933  -0.135   1.385  1.00  0.00     0.100 A 
HETATM    8  C8  UNL     1      -0.563   1.161   1.462  1.00  0.00     0.078 A 
HETATM    9  C9  UNL     1      -1.450   2.170   1.248  1.00  0.00     0.263 A 
HETATM   10  N1  UNL     1      -2.734   1.833   0.902  1.00  0.00    -0.294 N 
HETATM   11  C10 UNL     1      -3.687   2.924   0.646  1.00  0.00     0.134 C 
HETATM   12  O1  UNL     1      -1.107   3.327   1.341  1.00  0.00    -0.267 OA
HETATM   13  C11 UNL     1       0.703   1.478   1.789  1.00  0.00     0.004 C 
HETATM   14  C12 UNL     1       1.631   0.526   1.929  1.00  0.00     0.001 C 
HETATM   15  C13 UNL     1       1.323  -0.915   1.629  1.00  0.00     0.117 C 
HETATM   16  O2  UNL     1      -0.054  -1.166   1.620  1.00  0.00    -0.331 OA
HETATM   17  C14 UNL     1       1.937  -1.795   2.728  1.00  0.00     0.035 C 
ENDROOT
BRANCH  15  18
HETATM   18  C15 UNL     1       1.918  -1.304   0.264  1.00  0.00     0.037 C 
BRANCH  18  19
HETATM   19  C16 UNL     1       1.346  -0.533  -0.939  1.00  0.00     0.028 C 
BRANCH  19  20
HETATM   20  C17 UNL     1       2.046  -0.937  -2.214  1.00  0.00    -0.035 C 
HETATM   21  C18 UNL     1       2.874  -0.194  -2.970  1.00  0.00    -0.048 C 
HETATM   22  C19 UNL     1       3.493  -0.760  -4.229  1.00  0.00     0.026 C 
HETATM   23  C20 UNL     1       3.280   1.232  -2.678  1.00  0.00     0.026 C 
ENDBRANCH  19  20
ENDBRANCH  18  19
ENDBRANCH  15  18
TORSDOF 3
