REMARK  0 active torsions:
REMARK  status: ('A' for Active; 'I' for Inactive)
ROOT
HETATM    1  C1  UNL     1      -2.752   0.912   1.033  1.00  0.00     0.028 C 
HETATM    2  C2  UNL     1      -2.899  -0.278   0.068  1.00  0.00     0.035 C 
HETATM    3  C3  UNL     1      -1.651  -1.154   0.080  1.00  0.00     0.126 A 
HETATM    4  C4  UNL     1      -0.631  -0.852  -0.896  1.00  0.00     0.201 A 
HETATM    5  C5  UNL     1       0.744  -1.178  -0.481  1.00  0.00     0.204 C 
HETATM    6  C6  UNL     1       1.749  -0.273  -0.304  1.00  0.00     0.058 A 
HETATM    7  C7  UNL     1       1.785   1.069  -0.120  1.00  0.00     0.102 A 
HETATM    8  C8  UNL     1       0.780   2.196   0.004  1.00  0.00     0.020 C 
HETATM    9  C9  UNL     1      -0.703   1.963  -0.035  1.00  0.00    -0.024 C 
HETATM   10  C10 UNL     1      -1.313   1.359   0.998  1.00  0.00    -0.030 C 
HETATM   11  C11 UNL     1      -1.413   2.501  -1.257  1.00  0.00     0.031 C 
HETATM   12  O1  UNL     1       2.956   1.454  -0.016  1.00  0.00    -0.305 OA
HETATM   13  C12 UNL     1       3.720   0.503  -0.113  1.00  0.00     0.118 A 
HETATM   14  C13 UNL     1       3.049  -0.636  -0.294  1.00  0.00     0.008 A 
HETATM   15  C14 UNL     1       3.703  -1.978  -0.462  1.00  0.00     0.033 C 
HETATM   16  O2  UNL     1       1.043  -2.353  -0.513  1.00  0.00    -0.289 OA
HETATM   17  O3  UNL     1      -1.415  -1.967  -1.271  1.00  0.00    -0.348 OA
HETATM   18  C15 UNL     1      -1.441  -2.029   1.306  1.00  0.00     0.033 C 
ENDROOT
TORSDOF 0
