REMARK  11 active torsions:
REMARK  status: ('A' for Active; 'I' for Inactive)
REMARK    1  A    between atoms: C3_3  and  C33_41 
REMARK    2  A    between atoms: C6_6  and  O1_7 
REMARK    3  A    between atoms: C10_11  and  O6_37 
REMARK    4  A    between atoms: C12_13  and  O2_14 
REMARK    5  A    between atoms: N1_17  and  C16_19 
REMARK    6  A    between atoms: C19_22  and  O5_35 
REMARK    7  A    between atoms: C21_24  and  O3_25 
REMARK    8  A    between atoms: O3_25  and  C22_26 
REMARK    9  A    between atoms: C22_26  and  C23_28 
REMARK   10  A    between atoms: O6_37  and  C31_38 
REMARK   11  A    between atoms: C33_41  and  O8_42 
ROOT
HETATM    1  C1  UNL     1      -2.619   1.641   0.919  1.00  0.00     0.030 C 
HETATM    2  C2  UNL     1      -2.934   0.108   1.073  1.00  0.00     0.007 C 
HETATM    3  C3  UNL     1      -2.217  -0.874  -0.002  1.00  0.00     0.061 C 
HETATM    4  C4  UNL     1      -0.742  -0.573   0.804  1.00  0.00     0.036 C 
HETATM    5  C5  UNL     1      -0.280   0.928   0.531  1.00  0.00     0.057 C 
HETATM    6  C6  UNL     1      -1.244   1.931   1.231  1.00  0.00     0.117 C 
HETATM    7  C8  UNL     1       1.136   1.478   1.087  1.00  0.00     0.009 C 
HETATM    8  C9  UNL     1       2.213   0.580   0.843  1.00  0.00     0.054 C 
HETATM    9  C10 UNL     1       2.330   0.163  -0.619  1.00  0.00     0.110 C 
HETATM   10  C11 UNL     1       0.894  -0.474  -1.159  1.00  0.00     0.084 C 
HETATM   11  C12 UNL     1       0.358  -1.560  -0.033  1.00  0.00     0.120 C 
HETATM   12  C14 UNL     1      -0.190   0.769  -1.123  1.00  0.00     0.226 C 
HETATM   13  N1  UNL     1      -1.442   0.391  -1.848  1.00  0.00     0.135 N 
HETATM   14  C15 UNL     1      -1.962  -0.814  -1.458  1.00  0.00     0.253 C 
HETATM   15  C18 UNL     1       2.540   1.329  -1.538  1.00  0.00     0.058 C 
HETATM   16  C19 UNL     1       3.557   2.294  -1.081  1.00  0.00     0.120 C 
HETATM   17  C20 UNL     1       3.215   2.664   0.428  1.00  0.00     0.055 C 
HETATM   18  C21 UNL     1       3.385   1.431   1.332  1.00  0.00     0.129 C 
HETATM   19  C29 UNL     1       1.649   2.945   0.551  1.00  0.00     0.005 C 
ENDROOT
BRANCH  18  20
HETATM   20  O3  UNL     1       4.642   0.737   1.163  1.00  0.00    -0.301 OA
BRANCH  20  21
HETATM   21  C22 UNL     1       5.854   1.442   1.287  1.00  0.00     0.296 C 
HETATM   22  O4  UNL     1       5.910   2.651   1.544  1.00  0.00    -0.259 OA
BRANCH  21  23
HETATM   23  C23 UNL     1       7.040   0.700   0.892  1.00  0.00     0.063 A 
HETATM   24  C24 UNL     1       8.202   1.303   0.656  1.00  0.00     0.005 A 
HETATM   25  C25 UNL     1       9.343   0.503   0.175  1.00  0.00     0.000 A 
HETATM   26  C26 UNL     1       9.211  -0.809  -0.021  1.00  0.00     0.000 A 
HETATM   27  C27 UNL     1       7.939  -1.453   0.252  1.00  0.00     0.000 A 
HETATM   28  C28 UNL     1       6.914  -0.726   0.683  1.00  0.00     0.005 A 
ENDBRANCH  21  23
ENDBRANCH  20  21
ENDBRANCH  18  20
BRANCH   9  29
HETATM   29  O6  UNL     1       3.501  -0.806  -0.789  1.00  0.00    -0.306 OA
BRANCH  29  30
HETATM   30  C31 UNL     1       3.722  -1.980   0.063  1.00  0.00     0.272 C 
HETATM   31  C32 UNL     1       4.737  -3.001  -0.344  1.00  0.00     0.106 C 
HETATM   32  O7  UNL     1       3.097  -2.186   1.110  1.00  0.00    -0.264 OA
ENDBRANCH  29  30
ENDBRANCH   9  29
BRANCH  16  33
HETATM   33  O5  UNL     1       3.439   3.428  -1.978  1.00  0.00    -0.354 OA
HETATM   34  C30 UNL     1       4.416   4.448  -1.697  1.00  0.00     0.174 C 
ENDBRANCH  16  33
BRANCH   6  35
HETATM   35  O1  UNL     1      -1.073   1.731   2.662  1.00  0.00    -0.354 OA
HETATM   36  C7  UNL     1      -1.908   2.635   3.426  1.00  0.00     0.174 C 
ENDBRANCH   6  35
BRANCH  11  37
HETATM   37  O2  UNL     1      -0.242  -2.827  -0.392  1.00  0.00    -0.354 OA
HETATM   38  C13 UNL     1      -0.349  -3.678   0.773  1.00  0.00     0.174 C 
ENDBRANCH  11  37
BRANCH   3  39
HETATM   39  C33 UNL     1      -3.734  -0.291  -0.401  1.00  0.00     0.144 C 
BRANCH  39  40
HETATM   40  O8  UNL     1      -3.708   0.887  -1.396  1.00  0.00    -0.351 OA
HETATM   41  C34 UNL     1      -4.982   1.523  -1.670  1.00  0.00     0.174 C 
ENDBRANCH  39  40
ENDBRANCH   3  39
BRANCH  13  42
HETATM   42  C16 UNL     1      -1.218   0.240  -3.327  1.00  0.00     0.250 C 
HETATM   43  C17 UNL     1      -0.932   1.581  -4.030  1.00  0.00     0.037 C 
ENDBRANCH  13  42
TORSDOF 11
