REMARK  4 active torsions:
REMARK  status: ('A' for Active; 'I' for Inactive)
REMARK    1  A    between atoms: C5_5  and  C7_7 
REMARK    2  A    between atoms: C7_7  and  C8_8 
REMARK    3  A    between atoms: C8_8  and  C9_9 
REMARK    4  A    between atoms: C9_9  and  C10_10 
ROOT
HETATM    1  C7  UNL     1      -0.460  -0.530  -1.457  1.00  0.00     0.008 C 
HETATM    2  C14 UNL     1      -1.985  -0.748  -1.511  1.00  0.00     0.001 C 
ENDROOT
BRANCH   1   3
HETATM    3  C5  UNL     1      -0.050   0.919  -1.083  1.00  0.00     0.005 C 
HETATM    4  C4  UNL     1       1.474   1.128  -1.195  1.00  0.00     0.025 C 
HETATM    5  C3  UNL     1       1.911   2.569  -1.191  1.00  0.00    -0.035 C 
HETATM    6  C2  UNL     1       1.074   3.609  -1.327  1.00  0.00    -0.048 C 
HETATM    7  C1  UNL     1      -0.408   3.403  -1.494  1.00  0.00     0.022 C 
HETATM    8  C15 UNL     1       1.553   5.040  -1.284  1.00  0.00     0.026 C 
HETATM    9  C6  UNL     1      -0.750   1.979  -1.953  1.00  0.00     0.005 C 
ENDBRANCH   1   3
BRANCH   1  10
HETATM   10  C8  UNL     1       0.199  -1.628  -0.588  1.00  0.00     0.069 C 
BRANCH  10  11
HETATM   11  C9  UNL     1      -0.277  -1.753   0.860  1.00  0.00     0.172 C 
HETATM   12  O1  UNL     1      -0.932  -0.869   1.360  1.00  0.00    -0.291 OA
BRANCH  11  13
HETATM   13  C10 UNL     1       0.083  -2.896   1.504  1.00  0.00     0.029 C 
HETATM   14  C11 UNL     1      -0.227  -3.279   2.757  1.00  0.00    -0.041 C 
HETATM   15  C12 UNL     1       0.290  -4.597   3.299  1.00  0.00     0.026 C 
HETATM   16  C13 UNL     1      -1.078  -2.531   3.758  1.00  0.00     0.026 C 
ENDBRANCH  11  13
ENDBRANCH  10  11
ENDBRANCH   1  10
TORSDOF 4
