REMARK  3 active torsions:
REMARK  status: ('A' for Active; 'I' for Inactive)
REMARK    1  A    between atoms: C6_6  and  C34_38 
REMARK    2  A    between atoms: C21_21  and  O1_25 
REMARK    3  A    between atoms: O1_25  and  C25_26 
ROOT
HETATM    1  C1  UNL     1       5.606   3.778   0.150  1.00  0.00     0.014 C 
HETATM    2  C2  UNL     1       5.977   4.296  -1.243  1.00  0.00     0.004 C 
HETATM    3  C3  UNL     1       4.787   5.019  -1.903  1.00  0.00     0.032 C 
HETATM    4  C4  UNL     1       3.622   4.029  -2.102  1.00  0.00     0.142 C 
HETATM    5  C5  UNL     1       3.256   3.345  -0.762  1.00  0.00    -0.012 C 
HETATM    6  C6  UNL     1       4.382   2.840   0.171  1.00  0.00     0.095 C 
HETATM    7  C7  UNL     1       4.734   1.398  -0.240  1.00  0.00     0.014 C 
HETATM    8  C8  UNL     1       3.517   0.448  -0.174  1.00  0.00     0.005 C 
HETATM    9  C9  UNL     1       2.289   0.854  -1.041  1.00  0.00     0.018 C 
HETATM   10  C10 UNL     1       2.099   2.341  -0.708  1.00  0.00    -0.032 C 
HETATM   11  C11 UNL     1       0.967   2.786  -0.142  1.00  0.00    -0.031 C 
HETATM   12  C12 UNL     1      -0.186   1.940   0.279  1.00  0.00     0.026 C 
HETATM   13  C13 UNL     1       0.141   0.441   0.438  1.00  0.00     0.005 C 
HETATM   14  C14 UNL     1       1.004  -0.065  -0.768  1.00  0.00     0.004 C 
HETATM   15  C15 UNL     1       0.018  -0.131  -1.969  1.00  0.00     0.000 C 
HETATM   16  C16 UNL     1      -1.290  -0.917  -1.727  1.00  0.00     0.000 C 
HETATM   17  C17 UNL     1      -2.071  -0.418  -0.500  1.00  0.00     0.002 C 
HETATM   18  C18 UNL     1      -1.164  -0.386   0.764  1.00  0.00     0.001 C 
HETATM   19  C19 UNL     1      -2.048   0.255   1.864  1.00  0.00     0.003 C 
HETATM   20  C20 UNL     1      -3.320  -0.556   2.199  1.00  0.00     0.030 C 
HETATM   21  C21 UNL     1      -3.867  -1.446   1.067  1.00  0.00     0.115 C 
HETATM   22  C22 UNL     1      -3.564  -0.862  -0.334  1.00  0.00     0.025 C 
HETATM   23  C23 UNL     1      -4.015  -1.849  -1.439  1.00  0.00     0.002 C 
HETATM   24  C24 UNL     1      -4.502   0.370  -0.514  1.00  0.00     0.002 C 
HETATM   25  C31 UNL     1      -0.745  -1.763   1.335  1.00  0.00     0.000 C 
HETATM   26  C32 UNL     1       1.532  -1.515  -0.571  1.00  0.00     0.000 C 
HETATM   27  C33 UNL     1       2.693   0.649  -2.522  1.00  0.00     0.004 C 
HETATM   28  C35 UNL     1       2.378   4.717  -2.686  1.00  0.00     0.037 C 
HETATM   29  O7  UNL     1       4.043   3.112  -3.068  1.00  0.00    -0.222 OA
HETATM   30  C36 UNL     1       5.263   5.716  -3.192  1.00  0.00     0.003 C 
ENDROOT
BRANCH  21  31
HETATM   31  O1  UNL     1      -3.357  -2.753   1.173  1.00  0.00    -0.356 OA
BRANCH  31  32
HETATM   32  C25 UNL     1      -4.307  -3.789   1.197  1.00  0.00     0.148 C 
HETATM   33  C26 UNL     1      -4.982  -3.921   2.571  1.00  0.00     0.035 C 
HETATM   34  C27 UNL     1      -4.466  -5.100   3.412  1.00  0.00     0.038 C 
HETATM   35  C28 UNL     1      -2.966  -5.296   3.237  1.00  0.00     0.185 C 
HETATM   36  C29 UNL     1      -2.616  -5.621   1.792  1.00  0.00     0.215 C 
HETATM   37  O4  UNL     1      -2.297  -4.121   3.636  1.00  0.00    -0.221 OA
HETATM   38  C30 UNL     1      -3.602  -5.072   0.768  1.00  0.00     0.212 C 
HETATM   39  O3  UNL     1      -1.324  -5.129   1.530  1.00  0.00    -0.218 OA
HETATM   40  O2  UNL     1      -4.575  -6.051   0.480  1.00  0.00    -0.218 OA
ENDBRANCH  31  32
ENDBRANCH  21  31
BRANCH   6  41
HETATM   41  C34 UNL     1       3.981   2.774   1.658  1.00  0.00     0.188 C 
HETATM   42  O5  UNL     1       4.466   2.044   2.491  1.00  0.00    -0.647 OA
HETATM   43  O6  UNL     1       3.056   3.680   2.023  1.00  0.00    -0.647 OA
ENDBRANCH   6  41
TORSDOF 3
