REMARK  7 active torsions:
REMARK  status: ('A' for Active; 'I' for Inactive)
REMARK    1  A    between atoms: C1_1  and  C7_7 
REMARK    2  A    between atoms: C7_7  and  O1_8 
REMARK    3  A    between atoms: O1_8  and  C8_9 
REMARK    4  A    between atoms: C9_11  and  C19_29 
REMARK    5  A    between atoms: C12_14  and  O3_15 
REMARK    6  A    between atoms: O3_15  and  C13_16 
REMARK    7  A    between atoms: C14_18  and  C18_25 
ROOT
HETATM    1  C8  UNL     1       0.697   0.135   0.047  1.00  0.00     0.267 C 
HETATM    2  O2  UNL     1       0.205   1.438   0.271  1.00  0.00    -0.326 OA
HETATM    3  C9  UNL     1      -0.548   1.647   1.438  1.00  0.00     0.184 C 
HETATM    4  C10 UNL     1      -1.611   0.584   1.689  1.00  0.00     0.215 C 
HETATM    5  C11 UNL     1      -1.162  -0.832   1.378  1.00  0.00     0.217 C 
HETATM    6  C12 UNL     1      -0.397  -0.917   0.065  1.00  0.00     0.207 C 
HETATM    7  O9  UNL     1      -0.355  -1.319   2.429  1.00  0.00    -0.218 OA
HETATM    8  O10 UNL     1      -2.751   0.883   0.916  1.00  0.00    -0.218 OA
ENDROOT
BRANCH   6   9
HETATM    9  O3  UNL     1      -1.304  -0.796  -1.000  1.00  0.00    -0.324 OA
BRANCH   9  10
HETATM   10  C13 UNL     1      -0.767  -1.041  -2.284  1.00  0.00     0.270 C 
HETATM   11  O4  UNL     1      -0.612   0.194  -2.947  1.00  0.00    -0.326 OA
HETATM   12  C14 UNL     1      -1.790   0.823  -3.383  1.00  0.00     0.184 C 
HETATM   13  C15 UNL     1      -2.686  -0.102  -4.199  1.00  0.00     0.215 C 
HETATM   14  C16 UNL     1      -2.925  -1.449  -3.542  1.00  0.00     0.220 C 
HETATM   15  O7  UNL     1      -2.065  -0.329  -5.445  1.00  0.00    -0.218 OA
HETATM   16  C17 UNL     1      -1.603  -2.021  -3.078  1.00  0.00     0.241 C 
HETATM   17  O6  UNL     1      -3.808  -1.330  -2.455  1.00  0.00    -0.218 OA
HETATM   18  O5  UNL     1      -0.867  -2.421  -4.215  1.00  0.00    -0.215 OA
BRANCH  12  19
HETATM   19  C18 UNL     1      -2.510   1.571  -2.271  1.00  0.00     0.214 C 
HETATM   20  O8  UNL     1      -3.397   2.521  -2.827  1.00  0.00    -0.218 OA
ENDBRANCH  12  19
ENDBRANCH   9  10
ENDBRANCH   6   9
BRANCH   1  21
HETATM   21  O1  UNL     1       1.632  -0.167   1.055  1.00  0.00    -0.324 OA
BRANCH  21  22
HETATM   22  C7  UNL     1       2.917   0.389   0.870  1.00  0.00     0.172 C 
BRANCH  22  23
HETATM   23  C1  UNL     1       3.816   0.144   2.067  1.00  0.00     0.007 A 
HETATM   24  C2  UNL     1       5.098   0.550   2.024  1.00  0.00    -0.002 A 
HETATM   25  C3  UNL     1       5.927   0.356   3.061  1.00  0.00    -0.000 A 
HETATM   26  C4  UNL     1       5.481  -0.252   4.170  1.00  0.00    -0.000 A 
HETATM   27  C5  UNL     1       4.207  -0.664   4.230  1.00  0.00    -0.000 A 
HETATM   28  C6  UNL     1       3.385  -0.469   3.187  1.00  0.00    -0.002 A 
ENDBRANCH  22  23
ENDBRANCH  21  22
ENDBRANCH   1  21
BRANCH   3  29
HETATM   29  C19 UNL     1       0.330   1.945   2.650  1.00  0.00     0.214 C 
HETATM   30  O11 UNL     1      -0.415   2.660   3.618  1.00  0.00    -0.218 OA
ENDBRANCH   3  29
TORSDOF 7
