REMARK  0 active torsions:
REMARK  status: ('A' for Active; 'I' for Inactive)
ROOT
HETATM    1  C1  UNL     1      -0.728  -1.728   1.194  1.00  0.00     0.152 C 
HETATM    2  C2  UNL     1      -1.708  -0.806   0.495  1.00  0.00     0.033 C 
HETATM    3  C3  UNL     1      -0.938   0.508   0.201  1.00  0.00     0.003 C 
HETATM    4  C4  UNL     1       0.461   0.420   0.947  1.00  0.00     0.007 C 
HETATM    5  C5  UNL     1       0.635  -1.101   0.970  1.00  0.00     0.031 C 
HETATM    6  C6  UNL     1       1.182  -1.190  -0.543  1.00  0.00     0.006 C 
HETATM    7  C7  UNL     1       1.805   0.221  -0.920  1.00  0.00     0.018 C 
HETATM    8  C8  UNL     1       2.064   0.428   0.537  1.00  0.00     0.004 C 
HETATM    9  C9  UNL     1       1.219   1.688  -0.948  1.00  0.00    -0.049 C 
HETATM   10  C10 UNL     1       0.880   2.406   0.177  1.00  0.00    -0.035 C 
HETATM   11  C11 UNL     1       0.749   1.757   1.608  1.00  0.00     0.025 C 
HETATM   12  C12 UNL     1       1.183   2.315  -2.319  1.00  0.00     0.026 C 
HETATM   13  C13 UNL     1       0.267  -1.681  -1.691  1.00  0.00     0.000 C 
HETATM   14  C14 UNL     1       2.292  -2.289  -0.529  1.00  0.00     0.000 C 
HETATM   15  C15 UNL     1      -1.938   1.635   0.565  1.00  0.00     0.000 C 
HETATM   16  O1  UNL     1      -0.998  -1.734   2.578  1.00  0.00    -0.224 OA
ENDROOT
TORSDOF 0
