REMARK  5 active torsions:
REMARK  status: ('A' for Active; 'I' for Inactive)
REMARK    1  A    between atoms: C3_3  and  O3_22 
REMARK    2  A    between atoms: C5_5  and  C7_7 
REMARK    3  A    between atoms: C8_8  and  C9_9 
REMARK    4  A    between atoms: C9_9  and  O1_10 
REMARK    5  A    between atoms: O1_10  and  C10_11 
ROOT
HETATM    1  C9  UNL     1       4.380   0.876   0.117  1.00  0.00     0.296 C 
HETATM    2  O2  UNL     1       4.717   1.786   0.871  1.00  0.00    -0.259 OA
ENDROOT
BRANCH   1   3
HETATM    3  C8  UNL     1       3.213   0.035   0.483  1.00  0.00     0.068 C 
HETATM    4  C7  UNL     1       2.441   0.254   1.576  1.00  0.00     0.005 C 
BRANCH   4   5
HETATM    5  C5  UNL     1       1.281  -0.560   1.976  1.00  0.00     0.002 A 
HETATM    6  C4  UNL     1       0.472  -0.124   3.041  1.00  0.00     0.026 A 
HETATM    7  C3  UNL     1      -0.639  -0.842   3.506  1.00  0.00     0.119 A 
HETATM    8  C2  UNL     1      -0.941  -2.059   2.872  1.00  0.00     0.153 A 
HETATM    9  C1  UNL     1      -0.143  -2.513   1.820  1.00  0.00     0.029 A 
HETATM   10  O4  UNL     1      -2.007  -2.788   3.300  1.00  0.00    -0.188 OA
HETATM   11  C6  UNL     1       0.957  -1.782   1.373  1.00  0.00     0.002 A 
BRANCH   7  12
HETATM   12  O3  UNL     1      -1.457  -0.452   4.538  1.00  0.00    -0.326 OA
HETATM   13  C20 UNL     1      -1.186   0.759   5.201  1.00  0.00     0.181 C 
ENDBRANCH   7  12
ENDBRANCH   4   5
ENDBRANCH   1   3
BRANCH   1  14
HETATM   14  O1  UNL     1       5.069   0.602  -1.028  1.00  0.00    -0.301 OA
BRANCH  14  15
HETATM   15  C10 UNL     1       6.209   1.335  -1.373  1.00  0.00     0.124 C 
HETATM   16  C11 UNL     1       6.194   1.674  -2.874  1.00  0.00     0.030 C 
HETATM   17  C12 UNL     1       7.501   1.030  -3.389  1.00  0.00     0.003 C 
HETATM   18  C13 UNL     1       8.660   1.893  -2.847  1.00  0.00     0.000 C 
HETATM   19  C17 UNL     1       7.605  -0.283  -2.579  1.00  0.00     0.002 C 
HETATM   20  C14 UNL     1       8.667   1.521  -1.352  1.00  0.00     0.002 C 
HETATM   21  C15 UNL     1       7.504   0.497  -1.241  1.00  0.00     0.026 C 
HETATM   22  C16 UNL     1       7.600  -0.336   0.039  1.00  0.00     0.002 C 
HETATM   23  C18 UNL     1       8.922  -1.060  -2.791  1.00  0.00     0.000 C 
HETATM   24  C19 UNL     1       6.477  -1.292  -2.879  1.00  0.00     0.000 C 
ENDBRANCH  14  15
ENDBRANCH   1  14
TORSDOF 5
