REMARK  7 active torsions:
REMARK  status: ('A' for Active; 'I' for Inactive)
REMARK    1  A    between atoms: C7_7  and  O1_9 
REMARK    2  A    between atoms: O1_9  and  C9_10 
REMARK    3  A    between atoms: C12_13  and  C24_26 
REMARK    4  A    between atoms: C14_15  and  C15_16 
REMARK    5  A    between atoms: C17_18  and  C21_23 
REMARK    6  A    between atoms: C21_23  and  C22_24 
REMARK    7  A    between atoms: C24_26  and  C25_27 
ROOT
HETATM    1  C9  UNL     1       1.357  -1.216  -0.794  1.00  0.00     0.094 A 
HETATM    2  C10 UNL     1       1.259  -2.537  -1.256  1.00  0.00     0.024 A 
HETATM    3  C11 UNL     1       0.622  -2.883  -2.447  1.00  0.00    -0.002 A 
HETATM    4  C12 UNL     1       0.036  -1.901  -3.248  1.00  0.00    -0.018 A 
HETATM    5  C13 UNL     1       0.123  -0.578  -2.809  1.00  0.00    -0.002 A 
HETATM    6  C14 UNL     1       0.763  -0.237  -1.612  1.00  0.00     0.024 A 
ENDROOT
BRANCH   1   7
HETATM    7  O1  UNL     1       1.982  -0.991   0.410  1.00  0.00    -0.333 OA
BRANCH   7   8
HETATM    8  C7  UNL     1       1.333  -0.141   1.298  1.00  0.00     0.121 C 
HETATM    9  C6  UNL     1       0.032  -0.666   1.782  1.00  0.00     0.026 C 
HETATM   10  C2  UNL     1       0.610  -2.134   2.407  1.00  0.00     0.002 C 
HETATM   11  C5  UNL     1      -1.331  -1.209   1.494  1.00  0.00     0.002 C 
HETATM   12  C27 UNL     1      -0.524   0.812   2.353  1.00  0.00     0.002 C 
HETATM   13  C1  UNL     1       2.079  -2.722   2.418  1.00  0.00     0.000 C 
HETATM   14  C3  UNL     1       0.351  -1.249   3.574  1.00  0.00     0.003 C 
HETATM   15  C28 UNL     1      -0.134  -3.516   2.283  1.00  0.00     0.000 C 
HETATM   16  C4  UNL     1      -1.239  -1.317   3.120  1.00  0.00     0.000 C 
HETATM   17  C8  UNL     1       1.540  -0.273   2.910  1.00  0.00     0.030 C 
ENDBRANCH   7   8
ENDBRANCH   1   7
BRANCH   6  18
HETATM   18  C15 UNL     1       0.861   1.233  -1.325  1.00  0.00     0.027 A 
HETATM   19  C16 UNL     1      -0.266   1.938  -0.895  1.00  0.00    -0.002 A 
HETATM   20  C17 UNL     1      -0.186   3.300  -0.583  1.00  0.00    -0.018 A 
HETATM   21  C18 UNL     1       1.045   3.941  -0.754  1.00  0.00    -0.002 A 
HETATM   22  C19 UNL     1       2.161   3.241  -1.215  1.00  0.00     0.027 A 
HETATM   23  C20 UNL     1       2.090   1.877  -1.511  1.00  0.00     0.131 A 
HETATM   24  O2  UNL     1       3.186   1.207  -1.956  1.00  0.00    -0.190 OA
BRANCH  20  25
HETATM   25  C21 UNL     1      -1.380   4.069  -0.068  1.00  0.00     0.052 C 
BRANCH  25  26
HETATM   26  C22 UNL     1      -1.086   4.639   1.296  1.00  0.00    -0.021 C 
HETATM   27  C23 UNL     1      -1.026   5.952   1.563  1.00  0.00    -0.005 C 
ENDBRANCH  25  26
ENDBRANCH  20  25
ENDBRANCH   6  18
BRANCH   4  28
HETATM   28  C24 UNL     1      -0.618  -2.253  -4.562  1.00  0.00     0.052 C 
BRANCH  28  29
HETATM   29  C25 UNL     1       0.430  -2.322  -5.642  1.00  0.00    -0.021 C 
HETATM   30  C26 UNL     1       0.486  -1.484  -6.686  1.00  0.00    -0.005 C 
ENDBRANCH  28  29
ENDBRANCH   4  28
TORSDOF 7
