REMARK  2 active torsions:
REMARK  status: ('A' for Active; 'I' for Inactive)
REMARK    1  A    between atoms: C8_9  and  C10_12 
REMARK    2  A    between atoms: C13_15  and  O4_19 
ROOT
HETATM    1  C1  UNL     1      -0.885   0.139  -0.074  1.00  0.00     0.133 A 
HETATM    2  C2  UNL     1      -0.365   1.435  -0.043  1.00  0.00     0.028 A 
HETATM    3  C3  UNL     1       1.013   1.651  -0.017  1.00  0.00     0.007 A 
HETATM    4  C4  UNL     1       1.896   0.562  -0.022  1.00  0.00     0.062 A 
HETATM    5  C5  UNL     1       1.412  -0.749  -0.052  1.00  0.00     0.105 A 
HETATM    6  C6  UNL     1       0.024  -0.925  -0.077  1.00  0.00     0.052 A 
HETATM    7  O1  UNL     1       2.237  -1.827  -0.055  1.00  0.00    -0.305 OA
HETATM    8  C7  UNL     1       3.585  -1.628  -0.038  1.00  0.00     0.126 A 
HETATM    9  C8  UNL     1       4.242  -0.435  -0.007  1.00  0.00     0.067 A 
HETATM   10  C9  UNL     1       3.364   0.781   0.006  1.00  0.00     0.200 A 
HETATM   11  O2  UNL     1       3.747   1.942   0.039  1.00  0.00    -0.286 OA
HETATM   12  O6  UNL     1      -2.225  -0.087  -0.099  1.00  0.00    -0.190 OA
ENDROOT
BRANCH   9  13
HETATM   13  C10 UNL     1       5.739  -0.381   0.010  1.00  0.00     0.047 A 
HETATM   14  C11 UNL     1       6.488  -1.518  -0.007  1.00  0.00     0.048 A 
HETATM   15  C12 UNL     1       7.970  -1.595   0.007  1.00  0.00     0.218 A 
HETATM   16  C13 UNL     1       8.736  -0.324   0.040  1.00  0.00     0.136 A 
HETATM   17  O5  UNL     1       8.536  -2.684  -0.011  1.00  0.00    -0.284 OA
HETATM   18  C14 UNL     1       8.021   0.820   0.058  1.00  0.00     0.070 A 
HETATM   19  C15 UNL     1       6.534   0.892   0.045  1.00  0.00     0.198 A 
HETATM   20  O3  UNL     1       6.090   2.029   0.067  1.00  0.00    -0.286 OA
BRANCH  16  21
HETATM   21  O4  UNL     1      10.102  -0.441   0.052  1.00  0.00    -0.325 OA
HETATM   22  C16 UNL     1      10.876   0.736   0.093  1.00  0.00     0.181 C 
ENDBRANCH  16  21
ENDBRANCH   9  13
TORSDOF 2
