REMARK  4 active torsions:
REMARK  status: ('A' for Active; 'I' for Inactive)
REMARK    1  A    between atoms: C1_1  and  O6_23 
REMARK    2  A    between atoms: C13_15  and  O3_16 
REMARK    3  A    between atoms: O3_16  and  C14_17 
REMARK    4  A    between atoms: O6_23  and  C18_24 
ROOT
HETATM    1  C1  UNL     1      -0.400   1.448  -0.325  1.00  0.00     0.127 C 
HETATM    2  C2  UNL     1      -1.210   0.174  -0.535  1.00  0.00     0.063 C 
HETATM    3  C3  UNL     1      -0.528  -0.840   0.380  1.00  0.00     0.157 C 
HETATM    4  C4  UNL     1       0.973  -0.414   0.507  1.00  0.00     0.057 C 
HETATM    5  C5  UNL     1       1.044   0.921  -0.299  1.00  0.00     0.033 C 
HETATM    6  C6  UNL     1       2.106   1.972   0.102  1.00  0.00     0.005 C 
HETATM    7  C7  UNL     1       3.543   1.593  -0.316  1.00  0.00     0.031 C 
HETATM    8  C8  UNL     1       4.029   0.209   0.106  1.00  0.00     0.131 C 
HETATM    9  C9  UNL     1       3.307  -0.939  -0.624  1.00  0.00     0.083 C 
HETATM   10  C10 UNL     1       4.426  -1.945  -0.751  1.00  0.00     0.045 C 
HETATM   11  C11 UNL     1       5.654  -1.149  -0.590  1.00  0.00     0.292 C 
HETATM   12  O1  UNL     1       5.413   0.110  -0.151  1.00  0.00    -0.301 OA
HETATM   13  O2  UNL     1       6.780  -1.567  -0.844  1.00  0.00    -0.260 OA
HETATM   14  C12 UNL     1       4.409  -3.269  -0.983  1.00  0.00     0.001 C 
HETATM   15  C13 UNL     1       1.971  -1.470  -0.068  1.00  0.00     0.133 C 
HETATM   16  C16 UNL     1       1.813   3.361  -0.509  1.00  0.00     0.000 C 
HETATM   17  C17 UNL     1       1.266  -0.225   2.020  1.00  0.00     0.005 C 
HETATM   18  O5  UNL     1      -1.218  -0.850   1.610  1.00  0.00    -0.223 OA
ENDROOT
BRANCH   1  19
HETATM   19  O6  UNL     1      -0.714   2.037   0.904  1.00  0.00    -0.304 OA
BRANCH  19  20
HETATM   20  C18 UNL     1      -1.721   2.949   0.941  1.00  0.00     0.272 C 
HETATM   21  C19 UNL     1      -1.872   3.494   2.347  1.00  0.00     0.106 C 
HETATM   22  O7  UNL     1      -2.390   3.291  -0.008  1.00  0.00    -0.264 OA
ENDBRANCH  19  20
ENDBRANCH   1  19
BRANCH  15  23
HETATM   23  O3  UNL     1       1.388  -2.186  -1.130  1.00  0.00    -0.304 OA
BRANCH  23  24
HETATM   24  C14 UNL     1       0.896  -3.437  -0.904  1.00  0.00     0.272 C 
HETATM   25  C15 UNL     1       0.381  -4.032  -2.199  1.00  0.00     0.106 C 
HETATM   26  O4  UNL     1       0.868  -3.992   0.172  1.00  0.00    -0.264 OA
ENDBRANCH  23  24
ENDBRANCH  15  23
TORSDOF 4
