REMARK  2 active torsions:
REMARK  status: ('A' for Active; 'I' for Inactive)
REMARK    1  A    between atoms: C7_8  and  C10_11 
REMARK    2  A    between atoms: C13_14  and  O2_17 
ROOT
HETATM    1  C1  UNL     1      -0.894  -1.658   3.636  1.00  0.00     0.133 A 
HETATM    2  C2  UNL     1      -0.287  -2.831   3.184  1.00  0.00     0.027 A 
HETATM    3  C3  UNL     1       0.805  -2.774   2.320  1.00  0.00    -0.000 A 
HETATM    4  C4  UNL     1       1.319  -1.546   1.890  1.00  0.00     0.000 A 
HETATM    5  C5  UNL     1       0.753  -0.347   2.350  1.00  0.00     0.092 A 
HETATM    6  C6  UNL     1      -0.359  -0.444   3.197  1.00  0.00     0.051 A 
HETATM    7  O1  UNL     1       1.176   0.891   1.948  1.00  0.00    -0.329 OA
HETATM    8  C7  UNL     1       2.042   0.958   0.841  1.00  0.00     0.144 C 
HETATM    9  C8  UNL     1       3.116  -0.124   0.929  1.00  0.00     0.040 C 
HETATM   10  C9  UNL     1       2.481  -1.516   0.931  1.00  0.00     0.031 C 
HETATM   11  O3  UNL     1      -1.976  -1.685   4.458  1.00  0.00    -0.190 OA
ENDROOT
BRANCH   8  12
HETATM   12  C10 UNL     1       1.321   0.986  -0.498  1.00  0.00     0.005 A 
HETATM   13  C11 UNL     1       1.809   1.780  -1.542  1.00  0.00     0.000 A 
HETATM   14  C12 UNL     1       1.163   1.849  -2.778  1.00  0.00     0.024 A 
HETATM   15  C13 UNL     1       0.012   1.099  -3.060  1.00  0.00     0.094 A 
HETATM   16  C14 UNL     1      -0.478   0.326  -1.999  1.00  0.00     0.024 A 
HETATM   17  C15 UNL     1       0.152   0.262  -0.756  1.00  0.00     0.000 A 
BRANCH  15  18
HETATM   18  O2  UNL     1      -0.694   1.137  -4.236  1.00  0.00    -0.328 OA
HETATM   19  C16 UNL     1      -0.417   2.178  -5.145  1.00  0.00     0.181 C 
ENDBRANCH  15  18
ENDBRANCH   8  12
TORSDOF 2
