REMARK  6 active torsions:
REMARK  status: ('A' for Active; 'I' for Inactive)
REMARK    1  A    between atoms: C3_3  and  O2_7 
REMARK    2  A    between atoms: O2_7  and  C6_8 
REMARK    3  A    between atoms: C7_10  and  C11_17 
REMARK    4  A    between atoms: C12_19  and  C16_24 
REMARK    5  A    between atoms: C16_24  and  O9_25 
REMARK    6  A    between atoms: O9_25  and  C17_26 
ROOT
HETATM    1  C1  UNL     1      -0.232   3.506   1.017  1.00  0.00     0.059 C 
HETATM    2  C2  UNL     1      -0.266   2.029   1.476  1.00  0.00     0.066 C 
HETATM    3  C3  UNL     1       0.826   1.266   0.699  1.00  0.00     0.242 C 
HETATM    4  O1  UNL     1       2.115   1.865   0.875  1.00  0.00    -0.304 OA
HETATM    5  C4  UNL     1       2.213   3.193   0.705  1.00  0.00     0.115 C 
HETATM    6  C5  UNL     1       1.156   4.027   0.740  1.00  0.00     0.003 C 
HETATM    7  C12 UNL     1      -1.699   1.590   1.125  1.00  0.00     0.036 A 
HETATM    8  C13 UNL     1      -2.248   2.559   0.115  1.00  0.00     0.034 A 
HETATM    9  C14 UNL     1      -1.168   3.578  -0.205  1.00  0.00     0.156 C 
HETATM   10  O8  UNL     1      -1.738   4.865  -0.342  1.00  0.00    -0.223 OA
HETATM   11  C15 UNL     1      -2.879   2.475   1.490  1.00  0.00     0.005 A 
ENDROOT
BRANCH   3  12
HETATM   12  O2  UNL     1       0.908  -0.068   1.152  1.00  0.00    -0.304 OA
BRANCH  12  13
HETATM   13  C6  UNL     1       1.816  -0.855   0.404  1.00  0.00     0.272 C 
HETATM   14  O3  UNL     1       1.272  -1.057  -0.893  1.00  0.00    -0.326 OA
HETATM   15  C7  UNL     1       2.100  -1.791  -1.783  1.00  0.00     0.184 C 
HETATM   16  C8  UNL     1       2.336  -3.209  -1.215  1.00  0.00     0.215 C 
HETATM   17  C9  UNL     1       2.914  -3.150   0.217  1.00  0.00     0.220 C 
HETATM   18  O6  UNL     1       3.233  -3.897  -2.068  1.00  0.00    -0.218 OA
HETATM   19  C10 UNL     1       2.049  -2.221   1.098  1.00  0.00     0.241 C 
HETATM   20  O5  UNL     1       2.943  -4.453   0.775  1.00  0.00    -0.218 OA
HETATM   21  O4  UNL     1       2.699  -2.014   2.340  1.00  0.00    -0.215 OA
BRANCH  15  22
HETATM   22  C11 UNL     1       1.385  -1.803  -3.139  1.00  0.00     0.214 C 
HETATM   23  O7  UNL     1       1.369  -0.484  -3.641  1.00  0.00    -0.218 OA
ENDBRANCH  15  22
ENDBRANCH  12  13
ENDBRANCH   3  12
BRANCH   7  24
HETATM   24  C16 UNL     1      -2.006   0.104   0.980  1.00  0.00     0.152 C 
BRANCH  24  25
HETATM   25  O9  UNL     1      -3.379  -0.066   0.660  1.00  0.00    -0.302 OA
BRANCH  25  26
HETATM   26  C17 UNL     1      -3.711  -1.348   0.519  1.00  0.00     0.272 C 
HETATM   27  O10 UNL     1      -2.934  -2.264   0.648  1.00  0.00    -0.264 OA
HETATM   28  C18 UNL     1      -5.156  -1.600   0.180  1.00  0.00     0.106 C 
ENDBRANCH  25  26
ENDBRANCH  24  25
ENDBRANCH   7  24
TORSDOF 6
