REMARK  3 active torsions:
REMARK  status: ('A' for Active; 'I' for Inactive)
REMARK    1  A    between atoms: C14_15  and  C18_22 
REMARK    2  A    between atoms: C18_22  and  O5_23 
REMARK    3  A    between atoms: O5_23  and  C19_24 
ROOT
HETATM    1  C1  UNL     1      -3.058  -0.594  -0.196  1.00  0.00     0.198 C 
HETATM    2  C2  UNL     1      -3.065  -1.991   0.308  1.00  0.00     0.158 C 
HETATM    3  C3  UNL     1      -1.905  -2.593   0.646  1.00  0.00    -0.016 C 
HETATM    4  C4  UNL     1      -0.546  -1.919   0.548  1.00  0.00     0.023 C 
HETATM    5  C5  UNL     1      -0.607  -0.374   0.564  1.00  0.00     0.013 C 
HETATM    6  C6  UNL     1      -1.726   0.095  -0.397  1.00  0.00     0.072 C 
HETATM    7  C7  UNL     1       0.752   0.249   0.081  1.00  0.00     0.039 C 
HETATM    8  C8  UNL     1       1.990  -0.695   0.060  1.00  0.00     0.059 C 
HETATM    9  C9  UNL     1       1.718  -2.080  -0.550  1.00  0.00     0.127 C 
HETATM   10  C10 UNL     1       0.229  -2.409  -0.676  1.00  0.00     0.034 C 
HETATM   11  O1  UNL     1       2.292  -2.368  -1.805  1.00  0.00    -0.304 OA
HETATM   12  C11 UNL     1       2.763  -1.459  -2.702  1.00  0.00     0.272 C 
HETATM   13  C12 UNL     1       2.933  -0.043  -2.192  1.00  0.00     0.099 C 
HETATM   14  C13 UNL     1       3.188  -0.122  -0.698  1.00  0.00     0.051 C 
HETATM   15  C14 UNL     1       3.511   1.083   0.170  1.00  0.00     0.201 C 
HETATM   16  C15 UNL     1       2.436   2.171   0.110  1.00  0.00     0.216 C 
HETATM   17  C16 UNL     1       1.069   1.677   0.573  1.00  0.00     0.185 C 
HETATM   18  O2  UNL     1       1.056   1.784   1.979  1.00  0.00    -0.221 OA
HETATM   19  O3  UNL     1       2.330   2.704  -1.188  1.00  0.00    -0.218 OA
HETATM   20  O4  UNL     1       3.486   0.519   1.465  1.00  0.00    -0.347 OA
HETATM   21  C17 UNL     1       2.685  -0.651   1.433  1.00  0.00     0.145 C 
HETATM   22  O7  UNL     1       3.088  -1.767  -3.830  1.00  0.00    -0.264 OA
HETATM   23  C21 UNL     1      -1.053   0.028   1.991  1.00  0.00     0.001 C 
HETATM   24  C22 UNL     1      -1.866  -4.016   1.166  1.00  0.00     0.029 C 
HETATM   25  O8  UNL     1      -4.280  -2.596   0.395  1.00  0.00    -0.188 OA
HETATM   26  O9  UNL     1      -4.097  -0.009  -0.481  1.00  0.00    -0.289 OA
ENDROOT
BRANCH  15  27
HETATM   27  C18 UNL     1       4.922   1.578  -0.183  1.00  0.00     0.299 C 
HETATM   28  O6  UNL     1       5.899   0.862  -0.200  1.00  0.00    -0.262 OA
BRANCH  27  29
HETATM   29  O5  UNL     1       4.927   2.883  -0.561  1.00  0.00    -0.300 OA
BRANCH  29  30
HETATM   30  C19 UNL     1       6.131   3.427  -1.032  1.00  0.00     0.152 C 
HETATM   31  C20 UNL     1       7.102   3.710   0.110  1.00  0.00     0.035 C 
ENDBRANCH  29  30
ENDBRANCH  27  29
ENDBRANCH  15  27
TORSDOF 3
