REMARK  1 active torsions:
REMARK  status: ('A' for Active; 'I' for Inactive)
REMARK    1  A    between atoms: C15_17  and  C18_20 
ROOT
HETATM    1  C1  UNL     1      -2.674  -1.227  -2.401  1.00  0.00     0.033 C 
HETATM    2  C2  UNL     1      -3.464  -2.225  -1.570  1.00  0.00     0.155 C 
HETATM    3  C3  UNL     1      -2.611  -2.922  -0.508  1.00  0.00     0.063 C 
HETATM    4  C4  UNL     1      -1.218  -2.304  -0.257  1.00  0.00     0.130 C 
HETATM    5  C5  UNL     1      -1.234  -0.752  -0.235  1.00  0.00     0.033 C 
HETATM    6  C6  UNL     1      -1.903  -0.214  -1.541  1.00  0.00     0.005 C 
HETATM    7  C7  UNL     1       0.212  -0.151  -0.088  1.00  0.00     0.065 C 
HETATM    8  C8  UNL     1       1.348  -1.159  -0.371  1.00  0.00     0.035 C 
HETATM    9  C9  UNL     1       0.972  -1.989  -1.603  1.00  0.00     0.005 C 
HETATM   10  C10 UNL     1      -0.204  -2.910  -1.251  1.00  0.00     0.031 C 
HETATM   11  C11 UNL     1       2.756  -0.537  -0.420  1.00  0.00     0.130 C 
HETATM   12  C12 UNL     1       3.032   0.436   0.764  1.00  0.00     0.065 C 
HETATM   13  C13 UNL     1       1.888   0.464   1.793  1.00  0.00     0.211 C 
HETATM   14  C14 UNL     1       0.542   0.704   1.131  1.00  0.00     0.180 C 
HETATM   15  O1  UNL     1      -0.159   1.596   1.554  1.00  0.00    -0.293 OA
HETATM   16  O2  UNL     1       1.808  -0.727   2.557  1.00  0.00    -0.215 OA
HETATM   17  C15 UNL     1       3.154   1.810   0.044  1.00  0.00     0.029 C 
HETATM   18  C16 UNL     1       3.832   1.468  -1.290  1.00  0.00     0.007 C 
HETATM   19  C17 UNL     1       3.035   0.232  -1.722  1.00  0.00     0.031 C 
HETATM   20  C23 UNL     1       4.349   0.128   1.518  1.00  0.00     0.006 C 
HETATM   21  O5  UNL     1       3.672  -1.604  -0.379  1.00  0.00    -0.226 OA
HETATM   22  C24 UNL     1      -2.116  -0.300   0.961  1.00  0.00     0.003 C 
HETATM   23  O6  UNL     1      -0.848  -2.753   1.031  1.00  0.00    -0.226 OA
HETATM   24  O7  UNL     1      -4.549  -1.554  -0.971  1.00  0.00    -0.223 OA
ENDROOT
BRANCH  17  25
HETATM   25  C18 UNL     1       3.758   2.957   0.829  1.00  0.00     0.003 A 
HETATM   26  C19 UNL     1       2.952   3.797   1.521  1.00  0.00     0.122 A 
HETATM   27  O3  UNL     1       3.377   4.872   2.245  1.00  0.00    -0.271 OA
HETATM   28  C20 UNL     1       4.714   5.125   2.256  1.00  0.00     0.300 A 
HETATM   29  C21 UNL     1       5.676   4.266   1.534  1.00  0.00     0.068 A 
HETATM   30  O4  UNL     1       5.158   6.087   2.881  1.00  0.00    -0.259 OA
HETATM   31  C22 UNL     1       5.195   3.211   0.841  1.00  0.00     0.003 A 
ENDBRANCH  17  25
TORSDOF 1
