REMARK  3 active torsions:
REMARK  status: ('A' for Active; 'I' for Inactive)
REMARK    1  A    between atoms: C15_15  and  C19_22 
REMARK    2  A    between atoms: C17_17  and  O1_18 
REMARK    3  A    between atoms: O1_18  and  C18_19 
ROOT
HETATM    1  C1  UNL     1      -2.791  -1.147  -2.115  1.00  0.00     0.033 C 
HETATM    2  C2  UNL     1      -3.546  -2.195  -1.306  1.00  0.00     0.152 C 
HETATM    3  C3  UNL     1      -2.701  -2.850  -0.210  1.00  0.00     0.033 C 
HETATM    4  C4  UNL     1      -1.309  -2.211  -0.021  1.00  0.00     0.003 C 
HETATM    5  C5  UNL     1      -1.344  -0.660   0.031  1.00  0.00     0.000 C 
HETATM    6  C6  UNL     1      -2.035  -0.119  -1.258  1.00  0.00     0.003 C 
HETATM    7  C7  UNL     1       0.100  -0.058   0.195  1.00  0.00     0.003 C 
HETATM    8  C8  UNL     1       1.230  -1.062  -0.125  1.00  0.00     0.030 C 
HETATM    9  C9  UNL     1       0.851  -1.868  -1.372  1.00  0.00     0.003 C 
HETATM   10  C10 UNL     1      -0.307  -2.812  -1.032  1.00  0.00     0.000 C 
HETATM   11  C11 UNL     1       2.633  -0.437  -0.191  1.00  0.00     0.152 C 
HETATM   12  C12 UNL     1       2.994   0.380   1.067  1.00  0.00     0.032 C 
HETATM   13  C13 UNL     1       1.832   1.325   1.436  1.00  0.00     0.003 C 
HETATM   14  C14 UNL     1       0.463   0.627   1.529  1.00  0.00     0.000 C 
HETATM   15  C15 UNL     1       4.243   1.167   0.592  1.00  0.00     0.029 C 
HETATM   16  C16 UNL     1       4.031   1.446  -0.910  1.00  0.00     0.037 C 
HETATM   17  C17 UNL     1       2.892   0.519  -1.354  1.00  0.00     0.155 C 
HETATM   18  C24 UNL     1       3.338  -0.500   2.288  1.00  0.00     0.003 C 
HETATM   19  O6  UNL     1       3.567  -1.480  -0.328  1.00  0.00    -0.224 OA
HETATM   20  C25 UNL     1      -2.229  -0.240   1.235  1.00  0.00     0.000 C 
HETATM   21  O7  UNL     1      -4.692  -1.595  -0.745  1.00  0.00    -0.224 OA
ENDROOT
BRANCH  15  22
HETATM   22  C19 UNL     1       4.670   2.325   1.474  1.00  0.00     0.003 A 
HETATM   23  C20 UNL     1       5.637   2.079   2.544  1.00  0.00     0.003 A 
HETATM   24  C21 UNL     1       6.007   3.091   3.357  1.00  0.00     0.068 A 
HETATM   25  C22 UNL     1       5.416   4.424   3.118  1.00  0.00     0.300 A 
HETATM   26  O4  UNL     1       4.529   4.646   2.109  1.00  0.00    -0.271 OA
HETATM   27  O5  UNL     1       5.750   5.344   3.862  1.00  0.00    -0.259 OA
HETATM   28  C23 UNL     1       4.181   3.579   1.333  1.00  0.00     0.122 A 
ENDBRANCH  15  22
BRANCH  17  29
HETATM   29  O1  UNL     1       3.214  -0.210  -2.501  1.00  0.00    -0.277 OA
BRANCH  29  30
HETATM   30  C18 UNL     1       3.054   0.389  -3.713  1.00  0.00     0.333 C 
HETATM   31  O2  UNL     1       3.308  -0.308  -4.838  1.00  0.00    -0.624 OA
HETATM   32  O3  UNL     1       2.675   1.532  -3.833  1.00  0.00    -0.624 OA
ENDBRANCH  29  30
ENDBRANCH  17  29
TORSDOF 3
