REMARK  4 active torsions:
REMARK  status: ('A' for Active; 'I' for Inactive)
REMARK    1  A    between atoms: C5_5  and  O4_14 
REMARK    2  A    between atoms: C6_6  and  O2_10 
REMARK    3  A    between atoms: O2_10  and  C9_11 
REMARK    4  A    between atoms: O4_14  and  C11_15 
ROOT
HETATM    1  C1  UNL     1       3.031   0.311   1.276  1.00  0.00     0.041 C 
HETATM    2  C2  UNL     1       2.290  -0.914   1.885  1.00  0.00     0.049 C 
HETATM    3  C3  UNL     1       1.148  -1.547   1.098  1.00  0.00     0.135 C 
HETATM    4  C4  UNL     1       0.093  -0.541   0.584  1.00  0.00     0.086 C 
HETATM    5  C5  UNL     1       0.455  -0.008  -0.811  1.00  0.00     0.161 C 
HETATM    6  C6  UNL     1       1.588   1.031  -0.774  1.00  0.00     0.180 C 
HETATM    7  C7  UNL     1       2.965   0.574  -0.248  1.00  0.00     0.155 C 
HETATM    8  C8  UNL     1       3.565  -0.546  -1.108  1.00  0.00     0.036 C 
HETATM    9  O1  UNL     1       3.794   1.692  -0.493  1.00  0.00    -0.223 OA
HETATM   10  C13 UNL     1      -1.182  -1.336   0.747  1.00  0.00     0.045 C 
HETATM   11  C14 UNL     1      -0.820  -2.458   1.627  1.00  0.00     0.292 C 
HETATM   12  O6  UNL     1       0.507  -2.531   1.875  1.00  0.00    -0.300 OA
HETATM   13  O7  UNL     1      -1.632  -3.240   2.113  1.00  0.00    -0.260 OA
HETATM   14  C15 UNL     1      -2.437  -1.119   0.313  1.00  0.00     0.001 C 
HETATM   15  C16 UNL     1       3.415  -1.868   2.215  1.00  0.00    -0.046 C 
HETATM   16  C17 UNL     1       4.604  -1.260   2.166  1.00  0.00    -0.034 C 
HETATM   17  C18 UNL     1       4.491   0.187   1.796  1.00  0.00     0.028 C 
HETATM   18  C19 UNL     1       3.209  -3.282   2.674  1.00  0.00     0.026 C 
ENDROOT
BRANCH   5  19
HETATM   19  O4  UNL     1      -0.677   0.581  -1.393  1.00  0.00    -0.301 OA
BRANCH  19  20
HETATM   20  C11 UNL     1      -0.730   0.708  -2.745  1.00  0.00     0.272 C 
HETATM   21  C12 UNL     1      -2.018   1.393  -3.152  1.00  0.00     0.106 C 
HETATM   22  O5  UNL     1       0.132   0.341  -3.511  1.00  0.00    -0.264 OA
ENDBRANCH  19  20
ENDBRANCH   5  19
BRANCH   6  23
HETATM   23  O2  UNL     1       1.147   2.139  -0.033  1.00  0.00    -0.299 OA
BRANCH  23  24
HETATM   24  C9  UNL     1       1.100   3.426  -0.484  1.00  0.00     0.273 C 
HETATM   25  O3  UNL     1       0.737   4.335   0.233  1.00  0.00    -0.264 OA
HETATM   26  C10 UNL     1       1.476   3.681  -1.932  1.00  0.00     0.106 C 
ENDBRANCH  23  24
ENDBRANCH   6  23
TORSDOF 4
