REMARK  3 active torsions:
REMARK  status: ('A' for Active; 'I' for Inactive)
REMARK    1  A    between atoms: C2_2  and  O5_21 
REMARK    2  A    between atoms: C7_8  and  C10_12 
REMARK    3  A    between atoms: C13_15  and  O4_19 
ROOT
HETATM    1  C1  UNL     1      -1.548   1.700  -0.017  1.00  0.00     0.155 A 
HETATM    2  C2  UNL     1      -1.081   3.025   0.013  1.00  0.00     0.120 A 
HETATM    3  C3  UNL     1       0.309   3.205   0.036  1.00  0.00     0.032 A 
HETATM    4  C4  UNL     1       1.197   2.122   0.034  1.00  0.00     0.064 A 
HETATM    5  C5  UNL     1       0.745   0.797   0.004  1.00  0.00     0.105 A 
HETATM    6  C6  UNL     1      -0.642   0.634  -0.020  1.00  0.00     0.054 A 
HETATM    7  O1  UNL     1       1.566  -0.295  -0.001  1.00  0.00    -0.307 OA
HETATM    8  C7  UNL     1       2.924  -0.115   0.015  1.00  0.00     0.103 A 
HETATM    9  C8  UNL     1       3.479   1.124   0.044  1.00  0.00     0.067 A 
HETATM   10  C9  UNL     1       2.657   2.353   0.059  1.00  0.00     0.200 A 
HETATM   11  O2  UNL     1       3.168   3.470   0.088  1.00  0.00    -0.286 OA
HETATM   12  O6  UNL     1      -2.883   1.439  -0.043  1.00  0.00    -0.188 OA
ENDROOT
BRANCH   8  13
HETATM   13  C10 UNL     1       3.794  -1.315  -0.002  1.00  0.00     0.025 A 
HETATM   14  C11 UNL     1       3.201  -2.587  -0.035  1.00  0.00     0.004 A 
HETATM   15  C12 UNL     1       3.980  -3.740  -0.053  1.00  0.00     0.026 A 
HETATM   16  C13 UNL     1       5.384  -3.729  -0.041  1.00  0.00     0.119 A 
HETATM   17  C14 UNL     1       5.993  -2.460  -0.004  1.00  0.00     0.153 A 
HETATM   18  C15 UNL     1       5.197  -1.307   0.013  1.00  0.00     0.031 A 
HETATM   19  O3  UNL     1       7.342  -2.284   0.013  1.00  0.00    -0.188 OA
BRANCH  16  20
HETATM   20  O4  UNL     1       6.013  -4.951  -0.060  1.00  0.00    -0.326 OA
HETATM   21  C16 UNL     1       7.416  -5.035  -0.031  1.00  0.00     0.181 C 
ENDBRANCH  16  20
ENDBRANCH   8  13
BRANCH   2  22
HETATM   22  O5  UNL     1      -2.006   4.041   0.011  1.00  0.00    -0.326 OA
HETATM   23  C17 UNL     1      -1.551   5.374   0.012  1.00  0.00     0.181 C 
ENDBRANCH   2  22
TORSDOF 3
