REMARK  3 active torsions:
REMARK  status: ('A' for Active; 'I' for Inactive)
REMARK    1  A    between atoms: C15_15  and  C18_18 
REMARK    2  A    between atoms: C18_18  and  C19_19 
REMARK    3  A    between atoms: C20_20  and  C21_21 
ROOT
HETATM    1  C1  UNL     1      -2.210  -0.022   1.240  1.00  0.00     0.070 C 
HETATM    2  C2  UNL     1      -2.172  -1.512   1.506  1.00  0.00     0.172 C 
HETATM    3  C3  UNL     1      -0.949  -2.019   2.168  1.00  0.00     0.029 C 
HETATM    4  C4  UNL     1      -0.006  -1.211   2.694  1.00  0.00    -0.042 C 
HETATM    5  C5  UNL     1      -0.095   0.309   2.702  1.00  0.00     0.016 C 
HETATM    6  C6  UNL     1      -1.552   0.736   2.393  1.00  0.00     0.012 C 
HETATM    7  C7  UNL     1       0.948   0.739   1.635  1.00  0.00     0.004 C 
HETATM    8  C8  UNL     1       2.381   0.236   1.942  1.00  0.00     0.001 C 
HETATM    9  C9  UNL     1       2.378  -1.301   2.091  1.00  0.00     0.004 C 
HETATM   10  C10 UNL     1       1.327  -1.784   3.109  1.00  0.00     0.022 C 
HETATM   11  C11 UNL     1       3.479   0.897   1.054  1.00  0.00     0.000 C 
HETATM   12  C12 UNL     1       3.011   1.596  -0.256  1.00  0.00     0.000 C 
HETATM   13  C13 UNL     1       1.702   2.399  -0.053  1.00  0.00     0.000 C 
HETATM   14  C14 UNL     1       1.045   2.235   1.325  1.00  0.00     0.000 C 
HETATM   15  C15 UNL     1       2.905   0.388  -1.226  1.00  0.00     0.004 C 
HETATM   16  C16 UNL     1       4.064  -0.551  -0.808  1.00  0.00     0.000 C 
HETATM   17  C17 UNL     1       4.571  -0.064   0.556  1.00  0.00     0.000 C 
HETATM   18  C24 UNL     1       4.093   2.586  -0.758  1.00  0.00     0.000 C 
HETATM   19  C25 UNL     1       0.209   0.907   4.097  1.00  0.00     0.004 C 
HETATM   20  O2  UNL     1      -3.059  -2.262   1.119  1.00  0.00    -0.291 OA
ENDROOT
BRANCH  15  21
HETATM   21  C18 UNL     1       2.897   0.614  -2.757  1.00  0.00     0.022 C 
HETATM   22  C23 UNL     1       1.807   1.563  -3.278  1.00  0.00     0.005 C 
BRANCH  21  23
HETATM   23  C19 UNL     1       2.705  -0.733  -3.429  1.00  0.00    -0.024 C 
HETATM   24  C20 UNL     1       3.703  -1.475  -3.953  1.00  0.00     0.033 C 
BRANCH  24  25
HETATM   25  C21 UNL     1       3.461  -2.813  -4.541  1.00  0.00     0.173 C 
HETATM   26  C22 UNL     1       4.693  -3.619  -4.907  1.00  0.00     0.077 C 
HETATM   27  O1  UNL     1       2.336  -3.264  -4.728  1.00  0.00    -0.291 OA
ENDBRANCH  24  25
ENDBRANCH  21  23
ENDBRANCH  15  21
TORSDOF 3
