REMARK  6 active torsions:
REMARK  status: ('A' for Active; 'I' for Inactive)
REMARK    1  A    between atoms: C1_1  and  O9_28 
REMARK    2  A    between atoms: C2_2  and  O8_26 
REMARK    3  A    between atoms: C6_6  and  O1_7 
REMARK    4  A    between atoms: C9_11  and  C11_14 
REMARK    5  A    between atoms: C14_17  and  O6_23 
REMARK    6  A    between atoms: C15_18  and  O5_21 
ROOT
HETATM    1  C1  UNL     1      -0.666  -0.569   2.960  1.00  0.00     0.140 A 
HETATM    2  C2  UNL     1      -0.336  -1.812   2.385  1.00  0.00     0.118 A 
HETATM    3  C3  UNL     1       0.600  -1.811   1.345  1.00  0.00     0.026 A 
HETATM    4  C4  UNL     1       1.278  -0.658   0.949  1.00  0.00     0.035 A 
HETATM    5  C5  UNL     1       1.015   0.559   1.588  1.00  0.00     0.117 A 
HETATM    6  C6  UNL     1       0.003   0.608   2.565  1.00  0.00     0.140 A 
HETATM    7  O2  UNL     1       1.654   1.713   1.222  1.00  0.00    -0.329 OA
HETATM    8  C8  UNL     1       2.304   1.706  -0.022  1.00  0.00     0.156 C 
HETATM    9  C9  UNL     1       3.232   0.492  -0.130  1.00  0.00     0.089 C 
HETATM   10  C10 UNL     1       2.308  -0.723  -0.154  1.00  0.00     0.183 C 
HETATM   11  O3  UNL     1       3.100  -1.894  -0.072  1.00  0.00    -0.218 OA
ENDROOT
BRANCH   9  12
HETATM   12  C11 UNL     1       4.290   0.639  -1.226  1.00  0.00     0.012 A 
HETATM   13  C12 UNL     1       5.127   1.756  -1.123  1.00  0.00     0.028 A 
HETATM   14  C13 UNL     1       6.110   2.066  -2.059  1.00  0.00     0.155 A 
HETATM   15  C14 UNL     1       6.362   1.173  -3.105  1.00  0.00     0.143 A 
HETATM   16  O7  UNL     1       6.826   3.218  -1.972  1.00  0.00    -0.188 OA
HETATM   17  C15 UNL     1       5.566   0.019  -3.222  1.00  0.00     0.143 A 
HETATM   18  C16 UNL     1       4.524  -0.232  -2.306  1.00  0.00     0.151 A 
HETATM   19  O4  UNL     1       3.750  -1.325  -2.538  1.00  0.00    -0.188 OA
BRANCH  15  20
HETATM   20  O6  UNL     1       7.266   1.528  -4.074  1.00  0.00    -0.324 OA
HETATM   21  C18 UNL     1       8.601   1.189  -3.774  1.00  0.00     0.182 C 
ENDBRANCH  15  20
BRANCH  17  22
HETATM   22  O5  UNL     1       5.711  -0.786  -4.327  1.00  0.00    -0.324 OA
HETATM   23  C17 UNL     1       6.386  -2.001  -4.082  1.00  0.00     0.182 C 
ENDBRANCH  17  22
ENDBRANCH   9  12
BRANCH   6  24
HETATM   24  O1  UNL     1      -0.239   1.780   3.242  1.00  0.00    -0.324 OA
HETATM   25  C7  UNL     1      -0.984   2.742   2.527  1.00  0.00     0.182 C 
ENDBRANCH   6  24
BRANCH   2  26
HETATM   26  O8  UNL     1      -1.001  -2.931   2.825  1.00  0.00    -0.326 OA
HETATM   27  C19 UNL     1      -0.828  -4.142   2.127  1.00  0.00     0.181 C 
ENDBRANCH   2  26
BRANCH   1  28
HETATM   28  O9  UNL     1      -1.529  -0.541   4.029  1.00  0.00    -0.324 OA
HETATM   29  C20 UNL     1      -2.884  -0.385   3.673  1.00  0.00     0.182 C 
ENDBRANCH   1  28
TORSDOF 6
