REMARK  14 active torsions:
REMARK  status: ('A' for Active; 'I' for Inactive)
REMARK    1  A    between atoms: C2_2  and  O9_42 
REMARK    2  A    between atoms: C15_15  and  C16_16 
REMARK    3  A    between atoms: C16_16  and  C17_17 
REMARK    4  A    between atoms: C17_17  and  C18_18 
REMARK    5  A    between atoms: C18_18  and  C19_19 
REMARK    6  A    between atoms: C19_19  and  C20_20 
REMARK    7  A    between atoms: C20_20  and  C22_22 
REMARK    8  A    between atoms: C22_22  and  O1_23 
REMARK    9  A    between atoms: O1_23  and  C23_24 
REMARK   10  A    between atoms: C24_26  and  C28_33 
REMARK   11  A    between atoms: O9_42  and  C34_43 
REMARK   12  A    between atoms: C35_45  and  C45_62 
REMARK   13  A    between atoms: C36_46  and  O13_51 
REMARK   14  A    between atoms: O13_51  and  C39_52 
ROOT
HETATM    1  C1  UNL     1       3.565   2.149  -2.550  1.00  0.00     0.030 C 
HETATM    2  C2  UNL     1       3.008   1.284  -1.410  1.00  0.00     0.118 C 
HETATM    3  C3  UNL     1       4.079   0.283  -0.981  1.00  0.00     0.030 C 
HETATM    4  C4  UNL     1       5.525   0.825  -0.983  1.00  0.00     0.002 C 
HETATM    5  C5  UNL     1       5.734   2.367  -1.085  1.00  0.00     0.000 C 
HETATM    6  C6  UNL     1       4.944   2.821  -2.337  1.00  0.00     0.003 C 
HETATM    7  C7  UNL     1       7.279   2.562  -1.232  1.00  0.00     0.000 C 
HETATM    8  C8  UNL     1       8.021   2.046   0.021  1.00  0.00     0.000 C 
HETATM    9  C9  UNL     1       7.861   0.514   0.035  1.00  0.00     0.000 C 
HETATM   10  C10 UNL     1       6.371   0.143   0.107  1.00  0.00     0.000 C 
HETATM   11  C11 UNL     1       9.409   2.700   0.252  1.00  0.00     0.003 C 
HETATM   12  C12 UNL     1      10.209   3.129  -1.007  1.00  0.00     0.003 C 
HETATM   13  C13 UNL     1       9.285   3.789  -2.061  1.00  0.00     0.000 C 
HETATM   14  C14 UNL     1       7.818   3.946  -1.618  1.00  0.00     0.000 C 
HETATM   15  C15 UNL     1      10.844   1.773  -1.420  1.00  0.00     0.037 C 
HETATM   16  C30 UNL     1      11.188   1.111  -0.069  1.00  0.00     0.152 C 
HETATM   17  C31 UNL     1      10.391   1.813   1.027  1.00  0.00     0.033 C 
HETATM   18  O8  UNL     1      10.869  -0.258  -0.090  1.00  0.00    -0.224 OA
HETATM   19  C32 UNL     1      11.301   4.151  -0.599  1.00  0.00     0.000 C 
HETATM   20  C33 UNL     1       5.278   3.242   0.108  1.00  0.00     0.000 C 
ENDROOT
BRANCH   2  21
HETATM   21  O9  UNL     1       2.612   2.092  -0.340  1.00  0.00    -0.332 OA
BRANCH  21  22
HETATM   22  C34 UNL     1       1.827   1.480   0.669  1.00  0.00     0.270 C 
HETATM   23  O10 UNL     1       0.580   2.138   0.603  1.00  0.00    -0.326 OA
HETATM   24  C35 UNL     1      -0.305   1.777   1.637  1.00  0.00     0.181 C 
HETATM   25  C36 UNL     1       0.270   2.094   3.028  1.00  0.00     0.181 C 
HETATM   26  C37 UNL     1       1.606   1.377   3.151  1.00  0.00     0.217 C 
HETATM   27  C38 UNL     1       2.479   1.787   1.995  1.00  0.00     0.241 C 
HETATM   28  O12 UNL     1       2.327   1.718   4.309  1.00  0.00    -0.218 OA
HETATM   29  O11 UNL     1       3.683   1.081   2.129  1.00  0.00    -0.215 OA
BRANCH  24  30
HETATM   30  C45 UNL     1      -1.626   2.505   1.387  1.00  0.00     0.214 C 
HETATM   31  O18 UNL     1      -2.643   1.572   1.080  1.00  0.00    -0.218 OA
ENDBRANCH  24  30
BRANCH  25  32
HETATM   32  O13 UNL     1      -0.624   1.631   4.009  1.00  0.00    -0.326 OA
BRANCH  32  33
HETATM   33  C39 UNL     1      -0.425   2.169   5.301  1.00  0.00     0.270 C 
HETATM   34  O14 UNL     1      -1.488   3.058   5.574  1.00  0.00    -0.329 OA
HETATM   35  C40 UNL     1      -2.731   2.483   5.884  1.00  0.00     0.151 C 
HETATM   36  C41 UNL     1      -2.654   1.366   6.918  1.00  0.00     0.212 C 
HETATM   37  C44 UNL     1      -3.544   2.134   4.635  1.00  0.00     0.035 C 
HETATM   38  C42 UNL     1      -1.552   0.364   6.646  1.00  0.00     0.220 C 
HETATM   39  O17 UNL     1      -2.422   1.931   8.190  1.00  0.00    -0.218 OA
HETATM   40  C43 UNL     1      -0.265   1.100   6.359  1.00  0.00     0.241 C 
HETATM   41  O16 UNL     1      -1.864  -0.440   5.535  1.00  0.00    -0.218 OA
HETATM   42  O15 UNL     1       0.691   0.145   5.964  1.00  0.00    -0.215 OA
ENDBRANCH  32  33
ENDBRANCH  25  32
ENDBRANCH  21  22
ENDBRANCH   2  21
BRANCH  15  43
HETATM   43  C16 UNL     1      12.034   1.729  -2.410  1.00  0.00     0.060 C 
HETATM   44  C29 UNL     1      11.860   2.608  -3.664  1.00  0.00     0.008 C 
BRANCH  43  45
HETATM   45  C17 UNL     1      12.277   0.290  -2.886  1.00  0.00     0.150 C 
HETATM   46  O7  UNL     1      11.696  -0.124  -3.866  1.00  0.00    -0.296 OA
BRANCH  45  47
HETATM   47  C18 UNL     1      13.269  -0.605  -2.155  1.00  0.00     0.065 C 
BRANCH  47  48
HETATM   48  C19 UNL     1      13.144  -2.088  -2.551  1.00  0.00     0.010 C 
BRANCH  48  49
HETATM   49  C20 UNL     1      13.692  -3.071  -1.495  1.00  0.00     0.030 C 
HETATM   50  C21 UNL     1      12.636  -3.371  -0.416  1.00  0.00     0.003 C 
BRANCH  49  51
HETATM   51  C22 UNL     1      14.154  -4.379  -2.152  1.00  0.00     0.145 C 
BRANCH  51  52
HETATM   52  O1  UNL     1      15.339  -4.110  -2.856  1.00  0.00    -0.329 OA
BRANCH  52  53
HETATM   53  C23 UNL     1      15.872  -5.214  -3.550  1.00  0.00     0.270 C 
HETATM   54  O2  UNL     1      16.342  -6.115  -2.571  1.00  0.00    -0.326 OA
HETATM   55  C24 UNL     1      16.978  -7.235  -3.130  1.00  0.00     0.184 C 
HETATM   56  C25 UNL     1      18.206  -6.780  -3.909  1.00  0.00     0.215 C 
HETATM   57  C26 UNL     1      17.785  -5.824  -5.005  1.00  0.00     0.220 C 
HETATM   58  O5  UNL     1      18.864  -7.866  -4.512  1.00  0.00    -0.218 OA
HETATM   59  C27 UNL     1      17.025  -4.683  -4.372  1.00  0.00     0.241 C 
HETATM   60  O4  UNL     1      18.924  -5.327  -5.659  1.00  0.00    -0.218 OA
HETATM   61  O3  UNL     1      16.529  -3.840  -5.380  1.00  0.00    -0.215 OA
BRANCH  55  62
HETATM   62  C28 UNL     1      17.342  -8.194  -2.007  1.00  0.00     0.214 C 
HETATM   63  O6  UNL     1      16.166  -8.646  -1.363  1.00  0.00    -0.218 OA
ENDBRANCH  55  62
ENDBRANCH  52  53
ENDBRANCH  51  52
ENDBRANCH  49  51
ENDBRANCH  48  49
ENDBRANCH  47  48
ENDBRANCH  45  47
ENDBRANCH  43  45
ENDBRANCH  15  43
TORSDOF 14
