REMARK  16 active torsions:
REMARK  status: ('A' for Active; 'I' for Inactive)
REMARK    1  A    between atoms: C2_2  and  O4_37 
REMARK    2  A    between atoms: C15_15  and  C16_16 
REMARK    3  A    between atoms: C16_16  and  C17_17 
REMARK    4  A    between atoms: C17_17  and  C18_18 
REMARK    5  A    between atoms: C18_18  and  C19_19 
REMARK    6  A    between atoms: C19_19  and  C20_20 
REMARK    7  A    between atoms: C20_20  and  C21_21 
REMARK    8  A    between atoms: C21_21  and  N1_22 
REMARK       I    between atoms: N1_22  and  C22_23 
REMARK    9  A    between atoms: C22_23  and  C23_25 
REMARK   10  A    between atoms: C23_25  and  C24_26 
REMARK   11  A    between atoms: O4_37  and  C33_38 
REMARK   12  A    between atoms: C34_40  and  C49_66 
REMARK   13  A    between atoms: C35_41  and  O8_46 
REMARK   14  A    between atoms: O8_46  and  C38_47 
REMARK   15  A    between atoms: C42_52  and  O10_53 
REMARK   16  A    between atoms: O10_53  and  C43_54 
ROOT
HETATM    1  C1  UNL     1       4.845   0.307  -3.510  1.00  0.00     0.030 C 
HETATM    2  C2  UNL     1       4.327  -0.595  -2.381  1.00  0.00     0.118 C 
HETATM    3  C3  UNL     1       5.482  -1.483  -1.916  1.00  0.00     0.030 C 
HETATM    4  C4  UNL     1       6.869  -0.803  -1.902  1.00  0.00     0.002 C 
HETATM    5  C5  UNL     1       6.918   0.753  -1.958  1.00  0.00     0.000 C 
HETATM    6  C6  UNL     1       6.096   1.168  -3.205  1.00  0.00     0.003 C 
HETATM    7  C7  UNL     1       8.432   1.118  -2.084  1.00  0.00     0.000 C 
HETATM    8  C8  UNL     1       9.225   0.642  -0.846  1.00  0.00     0.000 C 
HETATM    9  C9  UNL     1       9.225  -0.899  -0.877  1.00  0.00     0.000 C 
HETATM   10  C10 UNL     1       7.780  -1.426  -0.828  1.00  0.00     0.000 C 
HETATM   11  C11 UNL     1      10.540   1.433  -0.602  1.00  0.00     0.003 C 
HETATM   12  C12 UNL     1      11.271   1.985  -1.856  1.00  0.00     0.003 C 
HETATM   13  C13 UNL     1      10.273   2.597  -2.869  1.00  0.00     0.000 C 
HETATM   14  C14 UNL     1       8.806   2.571  -2.408  1.00  0.00     0.000 C 
HETATM   15  C15 UNL     1      12.011   0.703  -2.322  1.00  0.00     0.037 C 
HETATM   16  C29 UNL     1      12.482   0.065  -0.999  1.00  0.00     0.152 C 
HETATM   17  C30 UNL     1      11.622   0.629   0.131  1.00  0.00     0.033 C 
HETATM   18  O3  UNL     1      12.356  -1.332  -1.033  1.00  0.00    -0.224 OA
HETATM   19  C31 UNL     1      12.278   3.086  -1.435  1.00  0.00     0.000 C 
HETATM   20  C32 UNL     1       6.374   1.523  -0.731  1.00  0.00     0.000 C 
ENDROOT
BRANCH   2  21
HETATM   21  O4  UNL     1       3.833   0.196  -1.343  1.00  0.00    -0.332 OA
BRANCH  21  22
HETATM   22  C33 UNL     1       3.105  -0.449  -0.309  1.00  0.00     0.270 C 
HETATM   23  O5  UNL     1       1.823   0.144  -0.395  1.00  0.00    -0.326 OA
HETATM   24  C34 UNL     1       1.020  -0.088   0.735  1.00  0.00     0.181 C 
HETATM   25  C35 UNL     1       1.661   0.571   1.969  1.00  0.00     0.181 C 
HETATM   26  C36 UNL     1       2.925  -0.231   2.234  1.00  0.00     0.217 C 
HETATM   27  C37 UNL     1       3.783  -0.098   0.999  1.00  0.00     0.241 C 
HETATM   28  O7  UNL     1       3.722   0.280   3.272  1.00  0.00    -0.218 OA
HETATM   29  O6  UNL     1       4.918  -0.897   1.206  1.00  0.00    -0.215 OA
BRANCH  24  30
HETATM   30  C49 UNL     1      -0.391   0.396   0.426  1.00  0.00     0.214 C 
HETATM   31  O17 UNL     1      -0.970  -0.425  -0.571  1.00  0.00    -0.218 OA
ENDBRANCH  24  30
BRANCH  25  32
HETATM   32  O8  UNL     1       0.746   0.581   3.031  1.00  0.00    -0.326 OA
BRANCH  32  33
HETATM   33  C38 UNL     1       1.192   1.202   4.229  1.00  0.00     0.267 C 
HETATM   34  O9  UNL     1       1.409   0.047   5.023  1.00  0.00    -0.329 OA
HETATM   35  C39 UNL     1       1.842   0.288   6.330  1.00  0.00     0.151 C 
HETATM   36  C40 UNL     1       0.839   1.152   7.077  1.00  0.00     0.212 C 
HETATM   37  C48 UNL     1       3.294   0.765   6.393  1.00  0.00     0.035 C 
HETATM   38  C41 UNL     1       0.441   2.388   6.298  1.00  0.00     0.217 C 
HETATM   39  O16 UNL     1      -0.327   0.401   7.335  1.00  0.00    -0.218 OA
HETATM   40  C42 UNL     1       0.118   2.098   4.833  1.00  0.00     0.207 C 
HETATM   41  O15 UNL     1       1.493   3.325   6.353  1.00  0.00    -0.218 OA
BRANCH  40  42
HETATM   42  O10 UNL     1       0.018   3.383   4.271  1.00  0.00    -0.324 OA
BRANCH  42  43
HETATM   43  C43 UNL     1      -0.281   3.492   2.899  1.00  0.00     0.270 C 
HETATM   44  O11 UNL     1       0.922   3.966   2.325  1.00  0.00    -0.326 OA
HETATM   45  C44 UNL     1       0.816   4.204   0.942  1.00  0.00     0.181 C 
HETATM   46  C45 UNL     1      -0.293   5.193   0.629  1.00  0.00     0.215 C 
HETATM   47  C46 UNL     1      -1.599   4.729   1.239  1.00  0.00     0.220 C 
HETATM   48  O14 UNL     1      -0.478   5.301  -0.761  1.00  0.00    -0.218 OA
HETATM   49  C47 UNL     1      -1.376   4.518   2.720  1.00  0.00     0.241 C 
HETATM   50  O13 UNL     1      -2.587   5.707   1.044  1.00  0.00    -0.218 OA
HETATM   51  O12 UNL     1      -2.566   4.041   3.295  1.00  0.00    -0.215 OA
ENDBRANCH  42  43
ENDBRANCH  40  42
ENDBRANCH  32  33
ENDBRANCH  25  32
ENDBRANCH  21  22
ENDBRANCH   2  21
BRANCH  15  52
HETATM   52  C16 UNL     1      13.146   0.778  -3.370  1.00  0.00     0.060 C 
HETATM   53  C28 UNL     1      12.865   1.677  -4.588  1.00  0.00     0.008 C 
BRANCH  52  54
HETATM   54  C17 UNL     1      13.439  -0.632  -3.901  1.00  0.00     0.150 C 
HETATM   55  O2  UNL     1      12.696  -1.136  -4.714  1.00  0.00    -0.296 OA
BRANCH  54  56
HETATM   56  C18 UNL     1      14.675  -1.363  -3.399  1.00  0.00     0.065 C 
BRANCH  56  57
HETATM   57  C19 UNL     1      14.892  -2.781  -3.973  1.00  0.00     0.010 C 
BRANCH  57  58
HETATM   58  C20 UNL     1      15.161  -3.846  -2.889  1.00  0.00     0.025 C 
HETATM   59  C27 UNL     1      15.868  -5.075  -3.488  1.00  0.00     0.002 C 
BRANCH  58  60
HETATM   60  C21 UNL     1      13.854  -4.286  -2.195  1.00  0.00     0.129 C 
BRANCH  60  61
HETATM   61  N1  UNL     1      14.168  -4.849  -0.879  1.00  0.00    -0.238 NA
HETATM   62  C22 UNL     1      13.275  -5.094   0.128  1.00  0.00     0.251 C 
HETATM   63  O1  UNL     1      13.677  -5.501   1.190  1.00  0.00    -0.271 OA
BRANCH  62  64
HETATM   64  C23 UNL     1      11.797  -4.844  -0.147  1.00  0.00     0.090 C 
BRANCH  64  65
HETATM   65  C24 UNL     1      11.102  -5.861  -1.073  1.00  0.00     0.009 C 
HETATM   66  C25 UNL     1      11.595  -7.297  -0.835  1.00  0.00     0.001 C 
HETATM   67  C26 UNL     1       9.573  -5.787  -0.902  1.00  0.00     0.001 C 
ENDBRANCH  64  65
ENDBRANCH  62  64
ENDBRANCH  60  61
ENDBRANCH  58  60
ENDBRANCH  57  58
ENDBRANCH  56  57
ENDBRANCH  54  56
ENDBRANCH  52  54
ENDBRANCH  15  52
TORSDOF 16
