REMARK  5 active torsions:
REMARK  status: ('A' for Active; 'I' for Inactive)
REMARK    1  A    between atoms: C9_9  and  C10_11 
REMARK    2  A    between atoms: C12_13  and  C22_23 
REMARK    3  A    between atoms: C14_15  and  C16_17 
REMARK    4  A    between atoms: C16_17  and  C17_18 
REMARK    5  A    between atoms: C22_23  and  C23_24 
ROOT
HETATM    1  C10 UNL     1       2.190  -0.524  -0.499  1.00  0.00     0.005 A 
HETATM    2  C11 UNL     1       2.184   0.402  -1.542  1.00  0.00    -0.006 A 
HETATM    3  C12 UNL     1       2.941   1.577  -1.488  1.00  0.00    -0.022 A 
HETATM    4  C13 UNL     1       3.751   1.827  -0.363  1.00  0.00    -0.029 A 
HETATM    5  C14 UNL     1       3.789   0.900   0.701  1.00  0.00    -0.022 A 
HETATM    6  C15 UNL     1       2.994  -0.248   0.608  1.00  0.00    -0.006 A 
HETATM    7  C21 UNL     1       4.584   3.091  -0.273  1.00  0.00     0.030 C 
ENDROOT
BRANCH   1   8
HETATM    8  C9  UNL     1       1.355  -1.791  -0.551  1.00  0.00     0.150 C 
HETATM    9  C8  UNL     1       2.242  -3.010  -0.798  1.00  0.00     0.089 C 
HETATM   10  C7  UNL     1       1.420  -4.282  -0.790  1.00  0.00     0.113 C 
HETATM   11  C5  UNL     1       0.227  -4.256   0.138  1.00  0.00     0.040 C 
HETATM   12  O2  UNL     1       1.737  -5.320  -1.534  1.00  0.00    -0.195 OA
HETATM   13  C4  UNL     1      -0.048  -3.107   0.814  1.00  0.00     0.080 C 
HETATM   14  C6  UNL     1      -0.515  -5.513   0.372  1.00  0.00     0.005 C 
HETATM   15  C3  UNL     1      -1.217  -3.144   1.755  1.00  0.00     0.105 C 
HETATM   16  O1  UNL     1       0.632  -1.934   0.647  1.00  0.00    -0.332 OA
HETATM   17  C2  UNL     1      -2.215  -4.269   1.660  1.00  0.00     0.115 C 
HETATM   18  C1  UNL     1      -1.653  -5.539   1.107  1.00  0.00     0.023 C 
HETATM   19  O3  UNL     1      -3.296  -4.283   2.483  1.00  0.00    -0.194 OA
ENDBRANCH   1   8
BRANCH   3  20
HETATM   20  C22 UNL     1       2.851   2.538  -2.659  1.00  0.00     0.051 C 
BRANCH  20  21
HETATM   21  C23 UNL     1       4.138   2.612  -3.441  1.00  0.00    -0.030 C 
HETATM   22  C24 UNL     1       4.450   3.556  -4.347  1.00  0.00    -0.048 C 
HETATM   23  C25 UNL     1       5.763   3.527  -5.092  1.00  0.00     0.026 C 
HETATM   24  C26 UNL     1       3.543   4.705  -4.718  1.00  0.00     0.026 C 
ENDBRANCH  20  21
ENDBRANCH   3  20
BRANCH   5  25
HETATM   25  C16 UNL     1       4.659   1.180   1.920  1.00  0.00     0.051 C 
BRANCH  25  26
HETATM   26  C17 UNL     1       4.837   0.139   3.001  1.00  0.00    -0.030 C 
HETATM   27  C18 UNL     1       5.604   0.287   4.097  1.00  0.00    -0.048 C 
HETATM   28  C19 UNL     1       5.704  -0.802   5.140  1.00  0.00     0.026 C 
HETATM   29  C20 UNL     1       6.423   1.520   4.396  1.00  0.00     0.026 C 
ENDBRANCH  25  26
ENDBRANCH   5  25
TORSDOF 5
