REMARK  5 active torsions:
REMARK  status: ('A' for Active; 'I' for Inactive)
REMARK    1  A    between atoms: C16_16  and  C35_39 
REMARK    2  A    between atoms: C20_21  and  O2_26 
REMARK    3  A    between atoms: O2_26  and  C25_27 
REMARK    4  A    between atoms: C25_27  and  C26_28 
REMARK    5  A    between atoms: C27_29  and  C28_30 
ROOT
HETATM    1  C1  UNL     1       9.732  -5.393  -3.563  1.00  0.00     0.033 C 
HETATM    2  C2  UNL     1      11.242  -5.594  -3.525  1.00  0.00     0.152 C 
HETATM    3  C3  UNL     1      11.880  -5.348  -2.141  1.00  0.00     0.028 C 
HETATM    4  C4  UNL     1      11.393  -3.970  -1.594  1.00  0.00     0.002 C 
HETATM    5  C5  UNL     1       9.868  -3.655  -1.656  1.00  0.00     0.001 C 
HETATM    6  C6  UNL     1       9.355  -3.986  -3.082  1.00  0.00     0.003 C 
HETATM    7  C7  UNL     1       9.710  -2.112  -1.414  1.00  0.00     0.005 C 
HETATM    8  C8  UNL     1      10.325  -1.512  -0.116  1.00  0.00     0.004 C 
HETATM    9  C9  UNL     1      11.768  -2.053   0.053  1.00  0.00     0.000 C 
HETATM   10  C10 UNL     1      11.956  -3.557  -0.220  1.00  0.00     0.000 C 
HETATM   11  C11 UNL     1      10.332   0.072  -0.217  1.00  0.00     0.017 C 
HETATM   12  C12 UNL     1       8.884   0.517  -0.332  1.00  0.00    -0.049 C 
HETATM   13  C13 UNL     1       8.010  -0.221  -1.039  1.00  0.00    -0.035 C 
HETATM   14  C14 UNL     1       8.297  -1.553  -1.677  1.00  0.00     0.025 C 
HETATM   15  C15 UNL     1       8.439   1.867   0.195  1.00  0.00     0.030 C 
HETATM   16  C16 UNL     1       9.093   2.265   1.533  1.00  0.00     0.112 C 
HETATM   17  C17 UNL     1      10.625   2.108   1.432  1.00  0.00     0.162 C 
HETATM   18  C18 UNL     1      11.063   0.705   1.000  1.00  0.00     0.037 C 
HETATM   19  O1  UNL     1      11.194   3.067   0.573  1.00  0.00    -0.223 OA
HETATM   20  C19 UNL     1       8.706   3.713   1.940  1.00  0.00     0.043 C 
HETATM   21  C20 UNL     1       7.539   4.313   1.139  1.00  0.00     0.125 C 
HETATM   22  C21 UNL     1       7.855   4.333  -0.376  1.00  0.00     0.026 C 
HETATM   23  C22 UNL     1       8.447   2.983  -0.865  1.00  0.00     0.007 C 
HETATM   24  C23 UNL     1       8.860   5.473  -0.679  1.00  0.00     0.002 C 
HETATM   25  C24 UNL     1       6.582   4.665  -1.190  1.00  0.00     0.002 C 
HETATM   26  C36 UNL     1      11.021   0.626  -1.496  1.00  0.00     0.004 C 
HETATM   27  C37 UNL     1       9.479  -1.958   1.111  1.00  0.00     0.000 C 
HETATM   28  C38 UNL     1       9.021  -4.492  -0.668  1.00  0.00     0.000 C 
HETATM   29  C39 UNL     1      13.419  -5.309  -2.364  1.00  0.00     0.003 C 
HETATM   30  C40 UNL     1      11.626  -6.521  -1.170  1.00  0.00     0.003 C 
HETATM   31  O7  UNL     1      11.528  -6.891  -3.998  1.00  0.00    -0.224 OA
ENDROOT
BRANCH  21  32
HETATM   32  O2  UNL     1       6.399   3.547   1.411  1.00  0.00    -0.301 OA
BRANCH  32  33
HETATM   33  C25 UNL     1       5.172   4.103   1.621  1.00  0.00     0.291 C 
HETATM   34  O4  UNL     1       5.056   5.312   1.798  1.00  0.00    -0.260 OA
BRANCH  33  35
HETATM   35  C26 UNL     1       3.950   3.260   1.474  1.00  0.00     0.039 C 
HETATM   36  C27 UNL     1       2.735   3.789   1.748  1.00  0.00     0.004 C 
HETATM   37  C34 UNL     1       4.096   1.820   1.038  1.00  0.00     0.036 C 
BRANCH  36  38
HETATM   38  C28 UNL     1       1.426   3.038   1.665  1.00  0.00     0.142 C 
HETATM   39  C29 UNL     1       0.851   2.712   3.043  1.00  0.00     0.058 C 
HETATM   40  C30 UNL     1      -0.563   2.415   2.634  1.00  0.00    -0.016 C 
HETATM   41  C31 UNL     1      -0.808   3.142   1.340  1.00  0.00     0.165 C 
HETATM   42  C32 UNL     1      -1.413   1.615   3.291  1.00  0.00    -0.032 C 
HETATM   43  O3  UNL     1       0.418   3.776   1.011  1.00  0.00    -0.348 OA
HETATM   44  C33 UNL     1      -2.813   1.293   2.848  1.00  0.00     0.030 C 
ENDBRANCH  36  38
ENDBRANCH  33  35
ENDBRANCH  32  33
ENDBRANCH  21  32
BRANCH  16  45
HETATM   45  C35 UNL     1       8.635   1.359   2.690  1.00  0.00     0.187 C 
HETATM   46  O5  UNL     1       7.400   0.847   2.540  1.00  0.00    -0.647 OA
HETATM   47  O6  UNL     1       9.261   1.136   3.699  1.00  0.00    -0.647 OA
ENDBRANCH  16  45
TORSDOF 5
