REMARK  8 active torsions:
REMARK  status: ('A' for Active; 'I' for Inactive)
REMARK    1  A    between atoms: C3_3  and  C26_33 
REMARK    2  A    between atoms: C15_15  and  C17_17 
REMARK    3  A    between atoms: C15_15  and  O2_19 
REMARK    4  A    between atoms: O2_19  and  C18_20 
REMARK    5  A    between atoms: C19_22  and  C23_29 
REMARK    6  A    between atoms: C26_33  and  O8_34 
REMARK    7  A    between atoms: O8_34  and  C27_35 
REMARK    8  A    between atoms: C28_37  and  C32_44 
ROOT
HETATM    1  C1  UNL     1       0.159   1.809   1.180  1.00  0.00     0.001 C 
HETATM    2  C2  UNL     1      -0.037   0.347   0.766  1.00  0.00     0.009 C 
HETATM    3  C3  UNL     1       0.723  -0.029  -0.531  1.00  0.00     0.078 C 
HETATM    4  C4  UNL     1       2.212   0.376  -0.338  1.00  0.00     0.009 C 
HETATM    5  C5  UNL     1       2.497   1.852   0.069  1.00  0.00     0.001 C 
HETATM    6  C6  UNL     1       1.649   2.147   1.333  1.00  0.00     0.000 C 
HETATM    7  C7  UNL     1       4.045   2.071   0.266  1.00  0.00     0.000 C 
HETATM    8  C8  UNL     1       4.907   0.784   0.349  1.00  0.00     0.002 C 
HETATM    9  C9  UNL     1       4.620  -0.191  -0.814  1.00  0.00     0.000 C 
HETATM   10  C10 UNL     1       3.210  -0.075  -1.411  1.00  0.00     0.001 C 
HETATM   11  C11 UNL     1       6.402   1.162   0.264  1.00  0.00     0.003 C 
HETATM   12  C12 UNL     1       6.636   1.746   1.660  1.00  0.00     0.028 C 
HETATM   13  C13 UNL     1       5.939   3.122   1.671  1.00  0.00     0.002 C 
HETATM   14  C14 UNL     1       4.427   3.055   1.393  1.00  0.00     0.000 C 
HETATM   15  C15 UNL     1       6.062   0.631   2.570  1.00  0.00     0.126 C 
HETATM   16  C16 UNL     1       4.820   0.174   1.774  1.00  0.00     0.030 C 
HETATM   17  C24 UNL     1       2.058   2.878  -1.010  1.00  0.00     0.000 C 
HETATM   18  C25 UNL     1       0.556  -1.561  -0.702  1.00  0.00     0.010 C 
ENDROOT
BRANCH   3  19
HETATM   19  C26 UNL     1       0.024   0.589  -1.744  1.00  0.00     0.273 C 
HETATM   20  O14 UNL     1      -1.090   1.061  -1.724  1.00  0.00    -0.264 OA
BRANCH  19  21
HETATM   21  O8  UNL     1       0.775   0.468  -2.873  1.00  0.00    -0.273 OA
BRANCH  21  22
HETATM   22  C27 UNL     1       0.185   0.797  -4.111  1.00  0.00     0.276 C 
HETATM   23  O9  UNL     1      -0.339  -0.429  -4.579  1.00  0.00    -0.326 OA
HETATM   24  C28 UNL     1      -0.985  -0.307  -5.819  1.00  0.00     0.184 C 
HETATM   25  C29 UNL     1       0.001   0.200  -6.866  1.00  0.00     0.215 C 
HETATM   26  C30 UNL     1       0.625   1.505  -6.418  1.00  0.00     0.220 C 
HETATM   27  O12 UNL     1      -0.639   0.430  -8.097  1.00  0.00    -0.218 OA
HETATM   28  C31 UNL     1       1.252   1.298  -5.058  1.00  0.00     0.241 C 
HETATM   29  O11 UNL     1       1.609   1.899  -7.340  1.00  0.00    -0.218 OA
HETATM   30  O10 UNL     1       1.767   2.526  -4.612  1.00  0.00    -0.215 OA
BRANCH  24  31
HETATM   31  C32 UNL     1      -1.550  -1.666  -6.208  1.00  0.00     0.214 C 
HETATM   32  O13 UNL     1      -2.529  -2.071  -5.272  1.00  0.00    -0.218 OA
ENDBRANCH  24  31
ENDBRANCH  21  22
ENDBRANCH  19  21
ENDBRANCH   3  19
BRANCH  15  33
HETATM   33  C17 UNL     1       5.832   1.158   3.988  1.00  0.00     0.209 C 
HETATM   34  O1  UNL     1       5.160   0.233   4.821  1.00  0.00    -0.218 OA
ENDBRANCH  15  33
BRANCH  15  35
HETATM   35  O2  UNL     1       7.035  -0.384   2.559  1.00  0.00    -0.331 OA
BRANCH  35  36
HETATM   36  C18 UNL     1       6.745  -1.559   3.283  1.00  0.00     0.270 C 
HETATM   37  O3  UNL     1       7.317  -1.376   4.556  1.00  0.00    -0.326 OA
HETATM   38  C19 UNL     1       7.032  -2.449   5.411  1.00  0.00     0.184 C 
HETATM   39  C20 UNL     1       7.664  -3.719   4.854  1.00  0.00     0.215 C 
HETATM   40  C21 UNL     1       7.160  -3.970   3.445  1.00  0.00     0.220 C 
HETATM   41  O6  UNL     1       7.327  -4.832   5.643  1.00  0.00    -0.218 OA
HETATM   42  C22 UNL     1       7.408  -2.735   2.605  1.00  0.00     0.241 C 
HETATM   43  O5  UNL     1       7.835  -5.067   2.888  1.00  0.00    -0.218 OA
HETATM   44  O4  UNL     1       6.843  -2.917   1.332  1.00  0.00    -0.215 OA
BRANCH  38  45
HETATM   45  C23 UNL     1       7.532  -2.072   6.794  1.00  0.00     0.214 C 
HETATM   46  O7  UNL     1       6.874  -0.885   7.198  1.00  0.00    -0.218 OA
ENDBRANCH  38  45
ENDBRANCH  35  36
ENDBRANCH  15  35
TORSDOF 8
