REMARK  2 active torsions:
REMARK  status: ('A' for Active; 'I' for Inactive)
REMARK    1  A    between atoms: C3_3  and  C20_22 
REMARK    2  A    between atoms: C12_13  and  C16_17 
ROOT
HETATM    1  C1  UNL     1      -1.986   0.771   0.294  1.00  0.00     0.001 C 
HETATM    2  C2  UNL     1      -2.063  -0.754   0.199  1.00  0.00     0.010 C 
HETATM    3  C3  UNL     1      -1.301  -1.322  -1.022  1.00  0.00     0.079 C 
HETATM    4  C4  UNL     1       0.164  -0.790  -0.983  1.00  0.00     0.019 C 
HETATM    5  C5  UNL     1       0.368   0.752  -0.853  1.00  0.00     0.027 C 
HETATM    6  C6  UNL     1      -0.523   1.236   0.323  1.00  0.00     0.002 C 
HETATM    7  C7  UNL     1       1.908   1.089  -0.665  1.00  0.00     0.133 C 
HETATM    8  C8  UNL     1       2.857  -0.132  -0.608  1.00  0.00     0.086 C 
HETATM    9  C9  UNL     1       2.562  -1.181  -1.667  1.00  0.00     0.153 C 
HETATM   10  C10 UNL     1       1.109  -1.384  -2.043  1.00  0.00     0.065 C 
HETATM   11  O1  UNL     1       3.437  -1.867  -2.147  1.00  0.00    -0.296 OA
HETATM   12  C11 UNL     1       3.108  -0.796   0.762  1.00  0.00     0.014 C 
HETATM   13  C12 UNL     1       3.130   0.182   1.959  1.00  0.00     0.019 C 
HETATM   14  C13 UNL     1       3.416   1.591   1.403  1.00  0.00     0.007 C 
HETATM   15  C14 UNL     1       2.297   2.075   0.465  1.00  0.00     0.031 C 
HETATM   16  C15 UNL     1       4.239  -0.226   2.953  1.00  0.00     0.004 C 
HETATM   17  O2  UNL     1       2.339   1.734  -1.848  1.00  0.00    -0.226 OA
HETATM   18  C18 UNL     1      -0.194   1.491  -2.101  1.00  0.00     0.003 C 
HETATM   19  C19 UNL     1      -1.347  -2.865  -0.878  1.00  0.00     0.011 C 
ENDROOT
BRANCH   3  20
HETATM   20  C20 UNL     1      -1.990  -1.052  -2.361  1.00  0.00     0.184 C 
HETATM   21  O3  UNL     1      -1.497  -1.177  -3.457  1.00  0.00    -0.647 OA
HETATM   22  O4  UNL     1      -3.280  -0.693  -2.240  1.00  0.00    -0.647 OA
ENDBRANCH   3  20
BRANCH  13  23
HETATM   23  C16 UNL     1       1.818   0.123   2.724  1.00  0.00    -0.027 C 
HETATM   24  C17 UNL     1       1.429   1.002   3.659  1.00  0.00    -0.005 C 
ENDBRANCH  13  23
TORSDOF 2
