REMARK  10 active torsions:
REMARK  status: ('A' for Active; 'I' for Inactive)
REMARK    1  A    between atoms: C3_3  and  C47_63 
REMARK    2  A    between atoms: C16_16  and  C24_24 
REMARK    3  A    between atoms: C24_24  and  O1_25 
REMARK    4  A    between atoms: O1_25  and  C25_26 
REMARK    5  A    between atoms: C26_28  and  C30_35 
REMARK    6  A    between atoms: C30_35  and  O6_36 
REMARK    7  A    between atoms: O6_36  and  C31_37 
REMARK    8  A    between atoms: C32_39  and  C42_56 
REMARK    9  A    between atoms: C33_40  and  O10_45 
REMARK   10  A    between atoms: O10_45  and  C36_46 
ROOT
HETATM    1  C24 UNL     1       9.844  -1.066  -1.935  1.00  0.00     0.273 C 
HETATM    2  O16 UNL     1      10.351  -2.163  -1.886  1.00  0.00    -0.264 OA
ENDROOT
BRANCH   1   3
HETATM    3  C16 UNL     1       9.835  -0.182  -3.192  1.00  0.00     0.082 C 
HETATM    4  C15 UNL     1       8.914   1.051  -3.061  1.00  0.00     0.031 C 
HETATM    5  C12 UNL     1       7.449   0.652  -2.947  1.00  0.00    -0.049 C 
HETATM    6  C22 UNL     1       9.162   2.148  -4.113  1.00  0.00     0.026 C 
HETATM    7  C11 UNL     1       6.854  -0.409  -3.878  1.00  0.00     0.015 C 
HETATM    8  C13 UNL     1       6.680   1.312  -2.063  1.00  0.00    -0.035 C 
HETATM    9  C8  UNL     1       5.539  -1.019  -3.218  1.00  0.00     0.004 C 
HETATM   10  C18 UNL     1       7.899  -1.522  -4.159  1.00  0.00     0.004 C 
HETATM   11  C43 UNL     1       6.582   0.307  -5.232  1.00  0.00     0.004 C 
HETATM   12  C7  UNL     1       4.569   0.152  -2.871  1.00  0.00     0.005 C 
HETATM   13  C9  UNL     1       4.846  -2.037  -4.161  1.00  0.00     0.000 C 
HETATM   14  C44 UNL     1       5.915  -1.795  -1.924  1.00  0.00     0.000 C 
HETATM   15  C5  UNL     1       3.039  -0.125  -2.630  1.00  0.00     0.001 C 
HETATM   16  C14 UNL     1       5.223   1.051  -1.810  1.00  0.00     0.025 C 
HETATM   17  C4  UNL     1       2.542  -1.092  -3.739  1.00  0.00     0.012 C 
HETATM   18  C6  UNL     1       2.256   1.222  -2.760  1.00  0.00     0.003 C 
HETATM   19  C45 UNL     1       2.745  -0.678  -1.215  1.00  0.00     0.000 C 
HETATM   20  C3  UNL     1       1.006  -1.350  -3.846  1.00  0.00     0.106 C 
HETATM   21  C10 UNL     1       3.396  -2.372  -3.788  1.00  0.00     0.001 C 
HETATM   22  C2  UNL     1       0.203  -0.065  -3.545  1.00  0.00     0.162 C 
HETATM   23  C46 UNL     1       0.539  -2.547  -2.987  1.00  0.00     0.013 C 
HETATM   24  C1  UNL     1       1.049   1.192  -3.711  1.00  0.00     0.034 C 
HETATM   25  O19 UNL     1      -0.351  -0.075  -2.250  1.00  0.00    -0.223 OA
HETATM   26  C17 UNL     1       9.342  -1.035  -4.378  1.00  0.00     0.010 C 
HETATM   27  C21 UNL     1      10.629   2.495  -4.151  1.00  0.00    -0.044 C 
HETATM   28  C20 UNL     1      11.529   1.323  -4.445  1.00  0.00     0.022 C 
HETATM   29  C23 UNL     1      11.091   3.735  -3.928  1.00  0.00    -0.009 C 
HETATM   30  C19 UNL     1      11.311   0.249  -3.372  1.00  0.00     0.014 C 
BRANCH  20  31
HETATM   31  C47 UNL     1       0.688  -1.712  -5.313  1.00  0.00     0.187 C 
HETATM   32  O17 UNL     1       1.386  -1.533  -6.284  1.00  0.00    -0.647 OA
HETATM   33  O18 UNL     1      -0.540  -2.245  -5.464  1.00  0.00    -0.647 OA
ENDBRANCH  20  31
ENDBRANCH   1   3
BRANCH   1  34
HETATM   34  O1  UNL     1       9.335  -0.434  -0.848  1.00  0.00    -0.273 OA
BRANCH  34  35
HETATM   35  C25 UNL     1       9.491  -1.037   0.421  1.00  0.00     0.276 C 
HETATM   36  O2  UNL     1       8.630  -0.214   1.192  1.00  0.00    -0.326 OA
HETATM   37  C26 UNL     1       8.645  -0.510   2.562  1.00  0.00     0.180 C 
HETATM   38  C27 UNL     1      10.047  -0.290   3.112  1.00  0.00     0.215 C 
HETATM   39  C28 UNL     1      11.006  -1.204   2.386  1.00  0.00     0.220 C 
HETATM   40  O5  UNL     1      10.117  -0.603   4.481  1.00  0.00    -0.218 OA
HETATM   41  C29 UNL     1      10.928  -0.939   0.899  1.00  0.00     0.241 C 
HETATM   42  O4  UNL     1      12.313  -0.963   2.841  1.00  0.00    -0.218 OA
HETATM   43  O3  UNL     1      11.755  -1.899   0.286  1.00  0.00    -0.215 OA
BRANCH  37  44
HETATM   44  C30 UNL     1       7.626   0.377   3.272  1.00  0.00     0.177 C 
BRANCH  44  45
HETATM   45  O6  UNL     1       6.336   0.052   2.818  1.00  0.00    -0.326 OA
BRANCH  45  46
HETATM   46  C31 UNL     1       5.309   0.657   3.576  1.00  0.00     0.270 C 
HETATM   47  O7  UNL     1       5.174  -0.131   4.734  1.00  0.00    -0.326 OA
HETATM   48  C32 UNL     1       4.197   0.356   5.613  1.00  0.00     0.181 C 
HETATM   49  C33 UNL     1       2.812   0.393   4.948  1.00  0.00     0.181 C 
HETATM   50  C34 UNL     1       2.870   1.087   3.592  1.00  0.00     0.217 C 
HETATM   51  C35 UNL     1       4.035   0.565   2.781  1.00  0.00     0.241 C 
HETATM   52  O9  UNL     1       1.712   0.835   2.834  1.00  0.00    -0.218 OA
HETATM   53  O8  UNL     1       4.168   1.339   1.616  1.00  0.00    -0.215 OA
BRANCH  48  54
HETATM   54  C42 UNL     1       4.260  -0.544   6.847  1.00  0.00     0.214 C 
HETATM   55  O15 UNL     1       3.379  -0.117   7.866  1.00  0.00    -0.218 OA
ENDBRANCH  48  54
BRANCH  49  56
HETATM   56  O10 UNL     1       1.959   1.077   5.826  1.00  0.00    -0.326 OA
BRANCH  56  57
HETATM   57  C36 UNL     1       0.576   0.936   5.586  1.00  0.00     0.270 C 
HETATM   58  O11 UNL     1       0.147   2.189   5.107  1.00  0.00    -0.329 OA
HETATM   59  C37 UNL     1      -1.227   2.234   4.828  1.00  0.00     0.151 C 
HETATM   60  C38 UNL     1      -2.084   1.805   6.019  1.00  0.00     0.212 C 
HETATM   61  C41 UNL     1      -1.565   1.512   3.521  1.00  0.00     0.035 C 
HETATM   62  C39 UNL     1      -1.584   0.565   6.740  1.00  0.00     0.220 C 
HETATM   63  O14 UNL     1      -2.120   2.858   6.957  1.00  0.00    -0.218 OA
HETATM   64  C40 UNL     1      -0.085   0.644   6.912  1.00  0.00     0.241 C 
HETATM   65  O13 UNL     1      -1.882  -0.596   6.004  1.00  0.00    -0.218 OA
HETATM   66  O12 UNL     1       0.392  -0.591   7.386  1.00  0.00    -0.215 OA
ENDBRANCH  56  57
ENDBRANCH  49  56
ENDBRANCH  45  46
ENDBRANCH  44  45
ENDBRANCH  37  44
ENDBRANCH  34  35
ENDBRANCH   1  34
TORSDOF 10
