REMARK  14 active torsions:
REMARK  status: ('A' for Active; 'I' for Inactive)
REMARK    1  A    between atoms: C2_2  and  O11_41 
REMARK    2  A    between atoms: C6_6  and  C7_7 
REMARK    3  A    between atoms: C7_7  and  C8_8 
REMARK    4  A    between atoms: C8_8  and  O1_9 
REMARK    5  A    between atoms: C8_8  and  C30_37 
REMARK    6  A    between atoms: O1_9  and  C9_10 
REMARK    7  A    between atoms: C10_11  and  O7_35 
REMARK    8  A    between atoms: C12_13  and  C16_18 
REMARK    9  A    between atoms: C14_15  and  O2_16 
REMARK   10  A    between atoms: C17_19  and  C28_33 
REMARK   11  A    between atoms: C20_23  and  O5_31 
REMARK   12  A    between atoms: C22_25  and  C24_27 
REMARK   13  A    between atoms: C24_27  and  C25_28 
REMARK   14  A    between atoms: C25_28  and  C26_29 
ROOT
HETATM    1  C9  UNL     1       1.235  -0.642  -0.498  1.00  0.00     0.138 A 
HETATM    2  C10 UNL     1       1.067  -1.136   0.813  1.00  0.00     0.118 A 
HETATM    3  C11 UNL     1       2.206  -1.493   1.546  1.00  0.00     0.024 A 
HETATM    4  C12 UNL     1       3.491  -1.365   1.022  1.00  0.00     0.009 A 
HETATM    5  C13 UNL     1       3.620  -0.891  -0.283  1.00  0.00     0.024 A 
HETATM    6  C14 UNL     1       2.519  -0.532  -1.073  1.00  0.00     0.118 A 
ENDROOT
BRANCH   4   7
HETATM    7  C16 UNL     1       4.718  -1.678   1.847  1.00  0.00     0.150 C 
HETATM    8  C17 UNL     1       5.460  -0.382   2.277  1.00  0.00     0.089 C 
HETATM    9  C18 UNL     1       6.870  -0.734   1.885  1.00  0.00     0.007 A 
HETATM   10  C19 UNL     1       6.908  -1.960   1.232  1.00  0.00     0.113 A 
HETATM   11  C23 UNL     1       8.033   0.012   2.049  1.00  0.00    -0.006 A 
HETATM   12  O3  UNL     1       5.642  -2.501   1.136  1.00  0.00    -0.327 OA
HETATM   13  C20 UNL     1       8.082  -2.527   0.723  1.00  0.00     0.116 A 
HETATM   14  C21 UNL     1       9.240  -1.763   0.942  1.00  0.00     0.022 A 
HETATM   15  C22 UNL     1       9.244  -0.508   1.576  1.00  0.00    -0.020 A 
BRANCH   8  16
HETATM   16  C28 UNL     1       5.272  -0.073   3.758  1.00  0.00     0.190 C 
HETATM   17  O6  UNL     1       5.875   1.163   4.081  1.00  0.00    -0.220 OA
ENDBRANCH   8  16
BRANCH  13  18
HETATM   18  O5  UNL     1       8.030  -3.760   0.126  1.00  0.00    -0.326 OA
HETATM   19  C27 UNL     1       9.243  -4.387  -0.218  1.00  0.00     0.181 C 
ENDBRANCH  13  18
BRANCH  15  20
HETATM   20  C24 UNL     1      10.561   0.231   1.710  1.00  0.00     0.029 C 
BRANCH  20  21
HETATM   21  C25 UNL     1      10.506   1.658   2.279  1.00  0.00     0.040 C 
BRANCH  21  22
HETATM   22  C26 UNL     1      11.890   2.304   2.311  1.00  0.00     0.183 C 
HETATM   23  O4  UNL     1      11.792   3.609   2.843  1.00  0.00    -0.221 OA
ENDBRANCH  21  22
ENDBRANCH  20  21
ENDBRANCH  15  20
ENDBRANCH   4   7
BRANCH   2  24
HETATM   24  O7  UNL     1      -0.217  -1.249   1.295  1.00  0.00    -0.326 OA
HETATM   25  C29 UNL     1      -0.423  -1.858   2.548  1.00  0.00     0.181 C 
ENDBRANCH   2  24
BRANCH   6  26
HETATM   26  O2  UNL     1       2.647  -0.029  -2.343  1.00  0.00    -0.326 OA
HETATM   27  C15 UNL     1       3.930   0.220  -2.865  1.00  0.00     0.181 C 
ENDBRANCH   6  26
BRANCH   1  28
HETATM   28  O1  UNL     1       0.085  -0.278  -1.156  1.00  0.00    -0.324 OA
BRANCH  28  29
HETATM   29  C8  UNL     1      -0.166  -0.677  -2.474  1.00  0.00     0.189 C 
BRANCH  29  30
HETATM   30  C7  UNL     1      -1.620  -0.289  -2.752  1.00  0.00     0.205 C 
HETATM   31  O9  UNL     1      -2.415  -0.776  -1.685  1.00  0.00    -0.216 OA
BRANCH  30  32
HETATM   32  C6  UNL     1      -1.785   1.212  -2.869  1.00  0.00     0.012 A 
HETATM   33  C1  UNL     1      -1.806   2.042  -1.742  1.00  0.00     0.025 A 
HETATM   34  C2  UNL     1      -1.933   3.439  -1.818  1.00  0.00     0.119 A 
HETATM   35  C3  UNL     1      -2.038   4.012  -3.097  1.00  0.00     0.153 A 
HETATM   36  C4  UNL     1      -2.030   3.194  -4.229  1.00  0.00     0.029 A 
HETATM   37  O10 UNL     1      -2.156   5.360  -3.247  1.00  0.00    -0.188 OA
HETATM   38  C5  UNL     1      -1.901   1.811  -4.125  1.00  0.00     0.001 A 
BRANCH  34  39
HETATM   39  O11 UNL     1      -1.927   4.283  -0.734  1.00  0.00    -0.326 OA
HETATM   40  C31 UNL     1      -1.675   3.743   0.542  1.00  0.00     0.181 C 
ENDBRANCH  34  39
ENDBRANCH  30  32
ENDBRANCH  29  30
BRANCH  29  41
HETATM   41  C30 UNL     1       0.070  -2.170  -2.665  1.00  0.00     0.215 C 
HETATM   42  O8  UNL     1      -0.073  -2.496  -4.034  1.00  0.00    -0.218 OA
ENDBRANCH  29  41
ENDBRANCH  28  29
ENDBRANCH   1  28
TORSDOF 14
