REMARK  0 active torsions:
REMARK  status: ('A' for Active; 'I' for Inactive)
ROOT
HETATM    1  C1  UNL     1      -2.239  -0.858   0.422  1.00  0.00    -0.002 A 
HETATM    2  C2  UNL     1      -2.325  -2.245   0.303  1.00  0.00     0.029 A 
HETATM    3  C3  UNL     1      -1.181  -3.038   0.181  1.00  0.00     0.154 A 
HETATM    4  C4  UNL     1       0.083  -2.430   0.171  1.00  0.00     0.125 A 
HETATM    5  C5  UNL     1       0.134  -1.029   0.281  1.00  0.00     0.023 A 
HETATM    6  C6  UNL     1      -0.996  -0.216   0.414  1.00  0.00    -0.020 A 
HETATM    7  C7  UNL     1      -0.920   1.295   0.540  1.00  0.00     0.026 C 
HETATM    8  C8  UNL     1       0.274   2.022  -0.113  1.00  0.00     0.005 C 
HETATM    9  C9  UNL     1       1.490   2.264   0.809  1.00  0.00     0.003 C 
HETATM   10  C10 UNL     1       2.618   3.094   0.152  1.00  0.00     0.033 C 
HETATM   11  C11 UNL     1       3.658   2.288  -0.639  1.00  0.00     0.152 C 
HETATM   12  C12 UNL     1       4.763   1.679   0.240  1.00  0.00     0.038 C 
HETATM   13  C13 UNL     1       5.474   0.428  -0.325  1.00  0.00     0.029 C 
HETATM   14  C14 UNL     1       4.540  -0.759  -0.255  1.00  0.00    -0.022 C 
HETATM   15  C15 UNL     1       4.002  -1.352  -1.401  1.00  0.00    -0.002 C 
HETATM   16  C16 UNL     1       2.909  -2.213  -1.296  1.00  0.00     0.024 C 
HETATM   17  C17 UNL     1       2.369  -2.554  -0.050  1.00  0.00     0.100 C 
HETATM   18  O1  UNL     1       1.191  -3.234   0.055  1.00  0.00    -0.305 OA
HETATM   19  C18 UNL     1       3.047  -2.115   1.093  1.00  0.00     0.024 C 
HETATM   20  C19 UNL     1       4.119  -1.230   0.993  1.00  0.00    -0.002 C 
HETATM   21  O2  UNL     1       2.993   1.304  -1.387  1.00  0.00    -0.224 OA
HETATM   22  O3  UNL     1      -1.269  -4.390   0.072  1.00  0.00    -0.188 OA
ENDROOT
TORSDOF 0
