REMARK  3 active torsions:
REMARK  status: ('A' for Active; 'I' for Inactive)
REMARK    1  A    between atoms: C3_3  and  O3_22 
REMARK    2  A    between atoms: O3_22  and  C20_23 
REMARK    3  A    between atoms: C21_25  and  C25_32 
ROOT
HETATM    1  C1  UNL     1      -1.806   1.166  -0.739  1.00  0.00    -0.002 A 
HETATM    2  C2  UNL     1      -1.719  -0.217  -0.597  1.00  0.00     0.026 A 
HETATM    3  C3  UNL     1      -0.570  -0.906  -0.169  1.00  0.00     0.119 A 
HETATM    4  C4  UNL     1       0.562  -0.115   0.136  1.00  0.00     0.122 A 
HETATM    5  C5  UNL     1       0.411   1.282   0.059  1.00  0.00     0.022 A 
HETATM    6  C6  UNL     1      -0.710   1.964  -0.415  1.00  0.00    -0.020 A 
HETATM    7  C7  UNL     1      -0.741   3.465  -0.639  1.00  0.00     0.029 C 
HETATM    8  C8  UNL     1       0.618   4.200  -0.617  1.00  0.00     0.038 C 
HETATM    9  C9  UNL     1       1.093   4.594   0.788  1.00  0.00     0.152 C 
HETATM   10  C10 UNL     1       2.579   4.364   1.082  1.00  0.00     0.033 C 
HETATM   11  C11 UNL     1       3.595   5.001   0.117  1.00  0.00     0.003 C 
HETATM   12  C12 UNL     1       5.061   4.690   0.500  1.00  0.00     0.005 C 
HETATM   13  C13 UNL     1       5.677   3.440  -0.164  1.00  0.00     0.026 C 
HETATM   14  C14 UNL     1       4.816   2.208  -0.014  1.00  0.00    -0.022 C 
HETATM   15  C15 UNL     1       4.141   1.668  -1.113  1.00  0.00    -0.002 C 
HETATM   16  C16 UNL     1       3.188   0.665  -0.940  1.00  0.00     0.024 C 
HETATM   17  C17 UNL     1       2.852   0.187   0.335  1.00  0.00     0.100 C 
HETATM   18  O1  UNL     1       1.774  -0.636   0.527  1.00  0.00    -0.305 OA
HETATM   19  C18 UNL     1       3.633   0.637   1.407  1.00  0.00     0.024 C 
HETATM   20  C19 UNL     1       4.615   1.615   1.236  1.00  0.00    -0.002 C 
HETATM   21  O2  UNL     1       0.785   5.950   1.023  1.00  0.00    -0.224 OA
ENDROOT
BRANCH   3  22
HETATM   22  O3  UNL     1      -0.707  -2.275  -0.144  1.00  0.00    -0.302 OA
BRANCH  22  23
HETATM   23  C20 UNL     1       0.360  -3.187  -0.042  1.00  0.00     0.274 C 
HETATM   24  O4  UNL     1       0.283  -3.983  -1.206  1.00  0.00    -0.326 OA
HETATM   25  C21 UNL     1       1.305  -4.948  -1.250  1.00  0.00     0.184 C 
HETATM   26  C22 UNL     1       1.166  -5.895  -0.062  1.00  0.00     0.215 C 
HETATM   27  C23 UNL     1       1.194  -5.118   1.240  1.00  0.00     0.220 C 
HETATM   28  O7  UNL     1       2.223  -6.823  -0.028  1.00  0.00    -0.218 OA
HETATM   29  C24 UNL     1       0.130  -4.046   1.179  1.00  0.00     0.241 C 
HETATM   30  O6  UNL     1       0.933  -5.986   2.313  1.00  0.00    -0.218 OA
HETATM   31  O5  UNL     1       0.202  -3.233   2.322  1.00  0.00    -0.215 OA
BRANCH  25  32
HETATM   32  C25 UNL     1       1.222  -5.678  -2.581  1.00  0.00     0.214 C 
HETATM   33  O8  UNL     1       1.484  -4.774  -3.636  1.00  0.00    -0.218 OA
ENDBRANCH  25  32
ENDBRANCH  22  23
ENDBRANCH   3  22
TORSDOF 3
