REMARK  0 active torsions:
REMARK  status: ('A' for Active; 'I' for Inactive)
ROOT
HETATM    1  C1  UNL     1      -1.736  -2.604  -0.475  1.00  0.00     0.027 C 
HETATM    2  C2  UNL     1      -1.858  -1.207  -0.475  1.00  0.00     0.131 C 
HETATM    3  C3  UNL     1      -0.751  -0.476  -0.041  1.00  0.00     0.027 C 
HETATM    4  C4  UNL     1       0.379  -1.137   0.450  1.00  0.00    -0.002 C 
HETATM    5  C5  UNL     1       0.541  -2.514   0.364  1.00  0.00    -0.022 C 
HETATM    6  C6  UNL     1      -0.555  -3.253  -0.094  1.00  0.00    -0.002 C 
HETATM    7  C7  UNL     1       1.903  -3.081   0.703  1.00  0.00     0.026 C 
HETATM    8  C8  UNL     1       2.968  -2.591  -0.308  1.00  0.00     0.005 C 
HETATM    9  C9  UNL     1       4.195  -1.864   0.282  1.00  0.00     0.008 C 
HETATM   10  C10 UNL     1       4.011  -0.399   0.730  1.00  0.00     0.065 C 
HETATM   11  C11 UNL     1       3.726   0.631  -0.362  1.00  0.00     0.151 C 
HETATM   12  C12 UNL     1       3.542   2.090   0.059  1.00  0.00     0.069 C 
HETATM   13  C13 UNL     1       2.588   2.965  -0.789  1.00  0.00     0.034 C 
HETATM   14  C14 UNL     1       1.137   2.688  -0.458  1.00  0.00    -0.022 C 
HETATM   15  C15 UNL     1       0.282   3.619   0.146  1.00  0.00    -0.002 C 
HETATM   16  C16 UNL     1      -0.999   3.247   0.561  1.00  0.00     0.027 C 
HETATM   17  C17 UNL     1      -1.462   1.928   0.452  1.00  0.00     0.131 C 
HETATM   18  C18 UNL     1      -0.590   0.998  -0.116  1.00  0.00     0.027 C 
HETATM   19  C19 UNL     1       0.628   1.413  -0.672  1.00  0.00    -0.002 C 
HETATM   20  O1  UNL     1      -2.647   1.556   1.000  1.00  0.00    -0.190 OA
HETATM   21  O2  UNL     1       3.703   0.320  -1.532  1.00  0.00    -0.296 OA
HETATM   22  O3  UNL     1      -2.976  -0.575  -0.917  1.00  0.00    -0.190 OA
ENDROOT
TORSDOF 0
