REMARK  4 active torsions:
REMARK  status: ('A' for Active; 'I' for Inactive)
REMARK    1  A    between atoms: C3_3  and  C9_13 
REMARK    2  A    between atoms: C6_6  and  O1_7 
REMARK    3  A    between atoms: C6_6  and  O2_9 
REMARK    4  A    between atoms: C9_13  and  C10_14 
ROOT
HETATM    1  C1  UNL     1       2.002   1.370  -1.200  1.00  0.00     0.066 C 
HETATM    2  C2  UNL     1       0.663   1.323  -1.111  1.00  0.00     0.016 C 
HETATM    3  C3  UNL     1      -0.084   0.077  -0.711  1.00  0.00     0.173 C 
HETATM    4  C4  UNL     1       0.738  -1.095  -1.182  1.00  0.00     0.016 C 
HETATM    5  C5  UNL     1       2.079  -1.058  -1.277  1.00  0.00     0.066 C 
HETATM    6  C6  UNL     1       2.860   0.170  -0.818  1.00  0.00     0.239 C 
HETATM    7 BR1  UNL     1       2.884  -2.626  -1.968  1.00  0.00    -0.049 Br
HETATM    8  O3  UNL     1      -1.333   0.047  -1.389  1.00  0.00    -0.216 OA
HETATM    9 BR2  UNL     1       2.748   3.013  -1.782  1.00  0.00    -0.049 Br
ENDROOT
BRANCH   3  10
HETATM   10  C9  UNL     1      -0.384   0.036   0.790  1.00  0.00     0.130 C 
BRANCH  10  11
HETATM   11  C10 UNL     1      -1.353  -1.076   1.153  1.00  0.00     0.277 C 
HETATM   12  O4  UNL     1      -1.871  -1.801   0.341  1.00  0.00    -0.269 OA
HETATM   13  N1  UNL     1      -1.623  -1.195   2.481  1.00  0.00    -0.107 N 
ENDBRANCH  10  11
ENDBRANCH   3  10
BRANCH   6  14
HETATM   14  O1  UNL     1       4.134   0.265  -1.464  1.00  0.00    -0.325 OA
HETATM   15  C7  UNL     1       5.223  -0.399  -0.856  1.00  0.00     0.178 C 
ENDBRANCH   6  14
BRANCH   6  16
HETATM   16  O2  UNL     1       3.037   0.068   0.596  1.00  0.00    -0.325 OA
HETATM   17  C8  UNL     1       3.301   1.283   1.262  1.00  0.00     0.178 C 
ENDBRANCH   6  16
TORSDOF 4
