REMARK  7 active torsions:
REMARK  status: ('A' for Active; 'I' for Inactive)
REMARK    1  A    between atoms: C5_5  and  C7_7 
REMARK    2  A    between atoms: C7_7  and  O1_8 
REMARK    3  A    between atoms: O1_8  and  C8_9 
REMARK    4  A    between atoms: C8_9  and  C9_10 
REMARK    5  A    between atoms: C9_10  and  O2_11 
REMARK    6  A    between atoms: C9_10  and  C12_15 
REMARK    7  A    between atoms: O2_11  and  C10_12 
ROOT
HETATM    1  C9  UNL     1      -0.219   0.857  -1.435  1.00  0.00     0.178 C 
ENDROOT
BRANCH   1   2
HETATM    2  C8  UNL     1       0.647  -0.070  -0.582  1.00  0.00     0.187 C 
BRANCH   2   3
HETATM    3  O1  UNL     1       1.720   0.661  -0.052  1.00  0.00    -0.295 OA
BRANCH   3   4
HETATM    4  C7  UNL     1       2.692   0.014   0.658  1.00  0.00     0.296 C 
HETATM    5  O6  UNL     1       3.709   0.632   0.961  1.00  0.00    -0.259 OA
BRANCH   4   6
HETATM    6  C5  UNL     1       2.643  -1.418   1.117  1.00  0.00     0.063 A 
HETATM    7  C4  UNL     1       3.731  -2.258   0.855  1.00  0.00     0.005 A 
HETATM    8  C3  UNL     1       3.703  -3.591   1.273  1.00  0.00     0.000 A 
HETATM    9  C2  UNL     1       2.598  -4.082   1.970  1.00  0.00     0.000 A 
HETATM   10  C1  UNL     1       1.527  -3.235   2.266  1.00  0.00     0.000 A 
HETATM   11  C6  UNL     1       1.552  -1.904   1.848  1.00  0.00     0.005 A 
ENDBRANCH   4   6
ENDBRANCH   3   4
ENDBRANCH   2   3
ENDBRANCH   1   2
BRANCH   1  12
HETATM   12  O2  UNL     1       0.519   1.322  -2.548  1.00  0.00    -0.297 OA
BRANCH  12  13
HETATM   13  C10 UNL     1       0.748   0.460  -3.575  1.00  0.00     0.273 C 
HETATM   14  C11 UNL     1       1.551   1.127  -4.674  1.00  0.00     0.106 C 
HETATM   15  O3  UNL     1       0.360  -0.686  -3.616  1.00  0.00    -0.264 OA
ENDBRANCH  12  13
ENDBRANCH   1  12
BRANCH   1  16
HETATM   16  C12 UNL     1      -0.811   2.058  -0.718  1.00  0.00     0.031 C 
HETATM   17  C13 UNL     1      -1.025   2.232   0.605  1.00  0.00     0.102 A 
HETATM   18  O4  UNL     1      -0.723   1.308   1.599  1.00  0.00    -0.273 OA
HETATM   19  C16 UNL     1      -1.650   3.432   1.178  1.00  0.00     0.030 A 
HETATM   20  C14 UNL     1      -1.190   1.987   2.910  1.00  0.00     0.300 A 
HETATM   21  C15 UNL     1      -1.751   3.295   2.520  1.00  0.00     0.071 A 
HETATM   22  O5  UNL     1      -1.121   1.495   4.030  1.00  0.00    -0.259 OA
ENDBRANCH   1  16
TORSDOF 7
