REMARK  2 active torsions:
REMARK  status: ('A' for Active; 'I' for Inactive)
REMARK    1  A    between atoms: C9_10  and  C20_24 
REMARK    2  A    between atoms: C20_24  and  C21_25 
ROOT
HETATM    1  C1  UNL     1      -2.211   0.129   1.218  1.00  0.00     0.031 A 
HETATM    2  C2  UNL     1      -2.166  -1.381   1.118  1.00  0.00     0.032 A 
HETATM    3  C3  UNL     1      -1.001  -2.005   0.416  1.00  0.00    -0.007 A 
HETATM    4  C4  UNL     1      -0.010  -1.205  -0.052  1.00  0.00     0.071 A 
HETATM    5  C5  UNL     1      -0.021   0.269   0.075  1.00  0.00     0.007 A 
HETATM    6  C6  UNL     1      -1.061   0.913   0.659  1.00  0.00    -0.025 A 
HETATM    7  C7  UNL     1       1.213   0.931  -0.481  1.00  0.00    -0.016 A 
HETATM    8  C8  UNL     1       2.152  -0.024  -1.208  1.00  0.00     0.160 A 
HETATM    9  N1  UNL     1       1.171  -1.628  -0.722  1.00  0.00    -0.265 NA
HETATM   10  C9  UNL     1       3.550   0.031  -0.563  1.00  0.00     0.165 C 
HETATM   11  N2  UNL     1       4.050   1.410  -0.503  1.00  0.00    -0.301 N 
HETATM   12  C10 UNL     1       3.089   2.502  -0.677  1.00  0.00     0.111 C 
HETATM   13  C11 UNL     1       1.707   2.275  -0.057  1.00  0.00     0.048 C 
HETATM   14  C12 UNL     1       5.386   1.689  -0.385  1.00  0.00     0.260 C 
HETATM   15  C13 UNL     1       6.325   0.576  -0.619  1.00  0.00     0.071 A 
HETATM   16  C14 UNL     1       5.853  -0.623  -1.191  1.00  0.00     0.062 A 
HETATM   17  N3  UNL     1       4.465  -0.814  -1.385  1.00  0.00    -0.331 N 
HETATM   18  C15 UNL     1       4.055  -1.993  -2.180  1.00  0.00     0.127 C 
HETATM   19  C16 UNL     1       6.820  -1.589  -1.542  1.00  0.00     0.017 A 
HETATM   20  C17 UNL     1       8.177  -1.391  -1.296  1.00  0.00     0.002 A 
HETATM   21  C18 UNL     1       8.620  -0.208  -0.698  1.00  0.00     0.000 A 
HETATM   22  C19 UNL     1       7.695   0.781  -0.376  1.00  0.00     0.006 A 
HETATM   23  O1  UNL     1       5.796   2.823  -0.166  1.00  0.00    -0.267 OA
ENDROOT
BRANCH  10  24
HETATM   24  C20 UNL     1       3.603  -0.621   0.851  1.00  0.00     0.109 C 
BRANCH  24  25
HETATM   25  C21 UNL     1       2.926   0.089   2.015  1.00  0.00     0.155 C 
HETATM   26  C22 UNL     1       3.739   1.101   2.802  1.00  0.00     0.072 C 
HETATM   27  O2  UNL     1       1.794  -0.181   2.348  1.00  0.00    -0.296 OA
ENDBRANCH  24  25
ENDBRANCH  10  24
TORSDOF 2
