REMARK  5 active torsions:
REMARK  status: ('A' for Active; 'I' for Inactive)
REMARK    1  A    between atoms: C1_1  and  O8_31 
REMARK    2  A    between atoms: C6_6  and  O1_7 
REMARK    3  A    between atoms: C13_15  and  O3_16 
REMARK    4  A    between atoms: C16_21  and  O6_27 
REMARK    5  A    between atoms: O6_27  and  C22_28 
ROOT
HETATM    1  C1  UNL     1       6.730  -1.783  -0.132  1.00  0.00     0.118 C 
HETATM    2  C2  UNL     1       6.332  -0.757  -0.996  1.00  0.00     0.022 C 
HETATM    3  C3  UNL     1       5.025  -0.271  -1.026  1.00  0.00    -0.018 C 
HETATM    4  C4  UNL     1       4.098  -0.799  -0.128  1.00  0.00     0.025 C 
HETATM    5  C5  UNL     1       4.520  -1.696   0.864  1.00  0.00     0.155 C 
HETATM    6  C6  UNL     1       5.854  -2.128   0.914  1.00  0.00     0.141 C 
HETATM    7  O2  UNL     1       3.643  -2.188   1.782  1.00  0.00    -0.188 OA
HETATM    8  C8  UNL     1       2.638  -0.496  -0.260  1.00  0.00     0.025 C 
HETATM    9  C9  UNL     1       2.050   0.781  -0.105  1.00  0.00     0.009 C 
HETATM   10  C10 UNL     1       0.645   0.865  -0.170  1.00  0.00     0.025 C 
HETATM   11  C11 UNL     1      -0.108  -0.280  -0.378  1.00  0.00     0.121 A 
HETATM   12  C12 UNL     1       0.506  -1.502  -0.602  1.00  0.00     0.141 A 
HETATM   13  C13 UNL     1       1.893  -1.638  -0.646  1.00  0.00     0.118 C 
HETATM   14  O4  UNL     1      -0.468  -2.459  -0.825  1.00  0.00    -0.298 OA
HETATM   15  C15 UNL     1      -1.743  -1.818  -0.703  1.00  0.00     0.304 A 
HETATM   16  O5  UNL     1      -1.479  -0.434  -0.445  1.00  0.00    -0.299 OA
HETATM   17  C16 UNL     1       2.726   2.134   0.146  1.00  0.00     0.146 C 
HETATM   18  C17 UNL     1       4.244   2.372   0.062  1.00  0.00     0.033 C 
HETATM   19  C18 UNL     1       4.896   2.175  -1.332  1.00  0.00     0.007 C 
HETATM   20  C19 UNL     1       4.634   0.813  -1.992  1.00  0.00     0.027 C 
HETATM   21  C20 UNL     1       4.512   3.295  -2.322  1.00  0.00     0.000 C 
HETATM   22  C21 UNL     1       5.020   1.805   1.268  1.00  0.00     0.003 C 
ENDROOT
BRANCH  17  23
HETATM   23  O6  UNL     1       2.239   2.646   1.373  1.00  0.00    -0.300 OA
BRANCH  23  24
HETATM   24  C22 UNL     1       2.005   3.984   1.472  1.00  0.00     0.273 C 
HETATM   25  C23 UNL     1       1.408   4.316   2.823  1.00  0.00     0.106 C 
HETATM   26  O7  UNL     1       2.214   4.799   0.600  1.00  0.00    -0.264 OA
ENDBRANCH  23  24
ENDBRANCH  17  23
BRANCH  13  27
HETATM   27  O3  UNL     1       2.446  -2.883  -0.802  1.00  0.00    -0.326 OA
HETATM   28  C14 UNL     1       2.784  -3.183  -2.137  1.00  0.00     0.181 C 
ENDBRANCH  13  27
BRANCH   6  29
HETATM   29  O1  UNL     1       6.206  -3.086   1.828  1.00  0.00    -0.324 OA
HETATM   30  C7  UNL     1       6.861  -2.571   2.964  1.00  0.00     0.182 C 
ENDBRANCH   6  29
BRANCH   1  31
HETATM   31  O8  UNL     1       8.033  -2.208  -0.127  1.00  0.00    -0.326 OA
HETATM   32  C24 UNL     1       8.246  -3.352  -0.922  1.00  0.00     0.181 C 
ENDBRANCH   1  31
TORSDOF 5
