REMARK  9 active torsions:
REMARK  status: ('A' for Active; 'I' for Inactive)
REMARK    1  A    between atoms: C3_3  and  O4_11 
REMARK    2  A    between atoms: C5_6  and  C6_7 
REMARK    3  A    between atoms: C6_7  and  O3_9 
REMARK    4  A    between atoms: O4_11  and  C8_12 
REMARK    5  A    between atoms: C9_14  and  C13_21 
REMARK    6  A    between atoms: C14_23  and  O12_30 
REMARK    7  A    between atoms: C16_25  and  O10_26 
REMARK    8  A    between atoms: O10_26  and  C17_27 
REMARK    9  A    between atoms: O12_30  and  C19_31 
ROOT
HETATM    1  C1  UNL     1       6.750   0.233   0.230  1.00  0.00     0.065 C 
HETATM    2  C2  UNL     1       5.539  -0.675  -0.062  1.00  0.00     0.089 C 
HETATM    3  C3  UNL     1       4.313   0.185  -0.344  1.00  0.00     0.244 C 
HETATM    4  O1  UNL     1       4.543   1.096  -1.396  1.00  0.00    -0.304 OA
HETATM    5  C4  UNL     1       5.700   1.810  -1.361  1.00  0.00     0.120 C 
HETATM    6  C5  UNL     1       6.750   1.506  -0.579  1.00  0.00     0.068 C 
HETATM    7  C14 UNL     1       5.448  -1.632   1.159  1.00  0.00     0.109 C 
HETATM    8  C15 UNL     1       6.431  -1.034   2.194  1.00  0.00     0.059 C 
HETATM    9  C16 UNL     1       6.703   0.401   1.747  1.00  0.00     0.131 C 
HETATM   10  C21 UNL     1       4.078  -1.774   1.839  1.00  0.00     0.031 C 
ENDROOT
BRANCH   3  11
HETATM   11  O4  UNL     1       3.288  -0.627  -0.874  1.00  0.00    -0.304 OA
BRANCH  11  12
HETATM   12  C8  UNL     1       2.047   0.022  -1.060  1.00  0.00     0.272 C 
HETATM   13  O5  UNL     1       1.167  -0.615  -0.159  1.00  0.00    -0.326 OA
HETATM   14  C9  UNL     1      -0.156  -0.157  -0.283  1.00  0.00     0.184 C 
HETATM   15  C10 UNL     1      -0.667  -0.437  -1.693  1.00  0.00     0.215 C 
HETATM   16  C11 UNL     1       0.216   0.261  -2.705  1.00  0.00     0.220 C 
HETATM   17  O8  UNL     1      -1.978   0.040  -1.868  1.00  0.00    -0.218 OA
HETATM   18  C12 UNL     1       1.634  -0.213  -2.494  1.00  0.00     0.241 C 
HETATM   19  O7  UNL     1      -0.204  -0.068  -4.005  1.00  0.00    -0.218 OA
HETATM   20  O6  UNL     1       2.497   0.511  -3.335  1.00  0.00    -0.215 OA
BRANCH  14  21
HETATM   21  C13 UNL     1      -1.006  -0.850   0.771  1.00  0.00     0.214 C 
HETATM   22  O9  UNL     1      -0.556  -0.487   2.062  1.00  0.00    -0.218 OA
ENDBRANCH  14  21
ENDBRANCH  11  12
ENDBRANCH   3  11
BRANCH   7  23
HETATM   23  O12 UNL     1       5.941  -2.900   0.838  1.00  0.00    -0.306 OA
BRANCH  23  24
HETATM   24  C19 UNL     1       5.306  -3.675  -0.081  1.00  0.00     0.272 C 
HETATM   25  C20 UNL     1       6.007  -5.013  -0.207  1.00  0.00     0.106 C 
HETATM   26  O13 UNL     1       4.327  -3.364  -0.719  1.00  0.00    -0.264 OA
ENDBRANCH  23  24
ENDBRANCH   7  23
BRANCH   6  27
HETATM   27  C6  UNL     1       7.985   2.362  -0.606  1.00  0.00     0.294 C 
HETATM   28  O2  UNL     1       9.036   1.745  -0.460  1.00  0.00    -0.259 OA
BRANCH  27  29
HETATM   29  O3  UNL     1       8.058   3.723  -0.726  1.00  0.00    -0.296 OA
HETATM   30  C7  UNL     1       6.899   4.521  -0.668  1.00  0.00     0.185 C 
ENDBRANCH  27  29
ENDBRANCH   6  27
BRANCH   9  31
HETATM   31  O10 UNL     1       7.914   0.844   2.287  1.00  0.00    -0.304 OA
BRANCH  31  32
HETATM   32  C17 UNL     1       8.063   2.179   2.496  1.00  0.00     0.272 C 
HETATM   33  C18 UNL     1       9.450   2.477   3.027  1.00  0.00     0.106 C 
HETATM   34  O11 UNL     1       7.218   3.014   2.267  1.00  0.00    -0.264 OA
ENDBRANCH  31  32
ENDBRANCH   9  31
TORSDOF 9
