REMARK  13 active torsions:
REMARK  status: ('A' for Active; 'I' for Inactive)
REMARK    1  A    between atoms: C2_2  and  C3_3 
REMARK    2  A    between atoms: C3_3  and  C4_4 
REMARK    3  A    between atoms: C4_4  and  C5_5 
REMARK    4  A    between atoms: C5_5  and  C6_6 
REMARK    5  A    between atoms: C6_6  and  C7_7 
REMARK    6  A    between atoms: C7_7  and  C8_8 
REMARK    7  A    between atoms: C9_10  and  C10_11 
REMARK    8  A    between atoms: C10_11  and  C11_12 
REMARK    9  A    between atoms: C12_13  and  C13_14 
REMARK   10  A    between atoms: C14_15  and  C15_16 
REMARK   11  A    between atoms: C15_16  and  C16_17 
REMARK   12  A    between atoms: C15_16  and  O2_19 
REMARK   13  A    between atoms: O2_19  and  C18_20 
ROOT
HETATM    1  C10 UNL     1       3.564   2.148   0.616  1.00  0.00     0.109 C 
ENDROOT
BRANCH   1   2
HETATM    2  C9  UNL     1       5.022   1.775   0.374  1.00  0.00     0.155 A 
HETATM    3  C8  UNL     1       5.720   0.861   1.180  1.00  0.00     0.143 A 
HETATM    4  O1  UNL     1       5.870   2.353   1.527  1.00  0.00    -0.353 OA
BRANCH   3   5
HETATM    5  C7  UNL     1       5.151   0.182   2.421  1.00  0.00     0.032 C 
BRANCH   5   6
HETATM    6  C6  UNL     1       4.919  -1.327   2.237  1.00  0.00     0.003 C 
BRANCH   6   7
HETATM    7  C5  UNL     1       4.381  -1.984   3.520  1.00  0.00     0.000 C 
BRANCH   7   8
HETATM    8  C4  UNL     1       4.386  -3.520   3.439  1.00  0.00     0.000 C 
BRANCH   8   9
HETATM    9  C3  UNL     1       3.841  -4.162   4.726  1.00  0.00     0.000 C 
BRANCH   9  10
HETATM   10  C2  UNL     1       3.984  -5.693   4.718  1.00  0.00     0.000 C 
HETATM   11  C1  UNL     1       3.422  -6.324   5.999  1.00  0.00     0.000 C 
ENDBRANCH   9  10
ENDBRANCH   8   9
ENDBRANCH   7   8
ENDBRANCH   6   7
ENDBRANCH   5   6
ENDBRANCH   3   5
ENDBRANCH   1   2
BRANCH   1  12
HETATM   12  C11 UNL     1       2.869   2.309  -0.675  1.00  0.00    -0.075 C 
HETATM   13  C12 UNL     1       2.300   2.526  -1.724  1.00  0.00    -0.014 C 
BRANCH  13  14
HETATM   14  C13 UNL     1       1.619   2.819  -2.971  1.00  0.00    -0.011 C 
HETATM   15  C14 UNL     1       1.049   3.083  -4.008  1.00  0.00    -0.044 C 
BRANCH  15  16
HETATM   16  C15 UNL     1       0.344   3.453  -5.253  1.00  0.00     0.210 C 
BRANCH  16  17
HETATM   17  C16 UNL     1      -0.068   4.904  -5.163  1.00  0.00     0.017 C 
HETATM   18  C17 UNL     1       0.421   5.870  -5.954  1.00  0.00    -0.001 C 
ENDBRANCH  16  17
BRANCH  16  19
HETATM   19  O2  UNL     1      -0.779   2.604  -5.430  1.00  0.00    -0.286 OA
BRANCH  19  20
HETATM   20  C18 UNL     1      -1.439   2.697  -6.616  1.00  0.00     0.274 C 
HETATM   21  C19 UNL     1      -2.629   1.759  -6.631  1.00  0.00     0.106 C 
HETATM   22  O3  UNL     1      -1.123   3.426  -7.528  1.00  0.00    -0.264 OA
ENDBRANCH  19  20
ENDBRANCH  16  19
ENDBRANCH  15  16
ENDBRANCH  13  14
ENDBRANCH   1  12
TORSDOF 13
