REMARK  4 active torsions:
REMARK  status: ('A' for Active; 'I' for Inactive)
REMARK    1  A    between atoms: C7_8  and  O3_18 
REMARK    2  A    between atoms: C8_9  and  O1_14 
REMARK    3  A    between atoms: O1_14  and  C13_15 
REMARK    4  A    between atoms: O3_18  and  C15_19 
ROOT
HETATM    1  C1  UNL     1      -0.340   1.962   2.740  1.00  0.00     0.035 C 
HETATM    2  C2  UNL     1      -1.439   1.195   1.995  1.00  0.00     0.250 C 
HETATM    3  N1  UNL     1      -1.088  -0.202   1.756  1.00  0.00     0.133 N 
HETATM    4  C3  UNL     1       0.184  -0.409   1.030  1.00  0.00     0.194 C 
HETATM    5  C4  UNL     1       1.307   0.413   1.703  1.00  0.00     0.032 C 
HETATM    6  C5  UNL     1       0.959   1.890   1.935  1.00  0.00     0.004 C 
HETATM    7  C6  UNL     1       2.623   0.191   0.942  1.00  0.00     0.032 C 
HETATM    8  C7  UNL     1       2.552   0.577  -0.545  1.00  0.00     0.152 C 
HETATM    9  C8  UNL     1       1.326   0.056  -1.311  1.00  0.00     0.154 C 
HETATM   10  C9  UNL     1       0.045   0.026  -0.455  1.00  0.00     0.060 C 
HETATM   11  C10 UNL     1      -1.123  -0.698  -1.150  1.00  0.00     0.006 C 
HETATM   12  C11 UNL     1      -2.421  -0.533  -0.349  1.00  0.00     0.035 C 
HETATM   13  C12 UNL     1      -2.206  -0.901   1.126  1.00  0.00     0.250 C 
HETATM   14  C17 UNL     1       3.093  -1.252   1.209  1.00  0.00     0.003 C 
HETATM   15  C18 UNL     1       2.044  -2.324   0.885  1.00  0.00     0.002 C 
HETATM   16  C19 UNL     1       0.600  -1.901   1.219  1.00  0.00     0.031 C 
HETATM   17  C20 UNL     1       2.401  -3.660   1.567  1.00  0.00     0.000 C 
ENDROOT
BRANCH   8  18
HETATM   18  O3  UNL     1       2.603   1.977  -0.629  1.00  0.00    -0.302 OA
BRANCH  18  19
HETATM   19  C15 UNL     1       3.171   2.545  -1.727  1.00  0.00     0.272 C 
HETATM   20  C16 UNL     1       3.185   4.053  -1.588  1.00  0.00     0.106 C 
HETATM   21  O4  UNL     1       3.605   1.937  -2.679  1.00  0.00    -0.264 OA
ENDBRANCH  18  19
ENDBRANCH   8  18
BRANCH   9  22
HETATM   22  O1  UNL     1       1.600  -1.201  -1.859  1.00  0.00    -0.302 OA
BRANCH  22  23
HETATM   23  C13 UNL     1       1.613  -1.514  -3.187  1.00  0.00     0.272 C 
HETATM   24  O2  UNL     1       1.862  -2.639  -3.568  1.00  0.00    -0.264 OA
HETATM   25  C14 UNL     1       1.296  -0.412  -4.181  1.00  0.00     0.106 C 
ENDBRANCH  22  23
ENDBRANCH   9  22
TORSDOF 4
