REMARK  7 active torsions:
REMARK  status: ('A' for Active; 'I' for Inactive)
REMARK    1  A    between atoms: C6_6  and  C14_17 
REMARK    2  A    between atoms: C8_8  and  C10_10 
REMARK    3  A    between atoms: C11_12  and  O2_13 
REMARK    4  A    between atoms: O2_13  and  C12_14 
REMARK    5  A    between atoms: C14_17  and  C16_19 
REMARK    6  A    between atoms: C16_19  and  C17_20 
REMARK    7  A    between atoms: C17_20  and  C18_21 
ROOT
HETATM    1  C1  UNL     1      -1.006  -1.043  -3.647  1.00  0.00     0.032 C 
HETATM    2  C2  UNL     1       0.403  -0.609  -3.213  1.00  0.00     0.051 C 
HETATM    3  C3  UNL     1       1.364  -1.770  -3.026  1.00  0.00    -0.042 C 
HETATM    4  C4  UNL     1       0.898  -2.968  -2.236  1.00  0.00     0.022 C 
HETATM    5  C5  UNL     1       1.008  -2.820  -0.710  1.00  0.00     0.005 C 
HETATM    6  C6  UNL     1       0.821  -1.427  -0.063  1.00  0.00     0.007 C 
HETATM    7  C7  UNL     1      -0.262  -0.579  -0.780  1.00  0.00     0.053 C 
HETATM    8  C8  UNL     1      -1.525  -1.312  -1.189  1.00  0.00     0.018 C 
HETATM    9  C9  UNL     1      -1.855  -1.490  -2.486  1.00  0.00    -0.027 C 
HETATM   10  C11 UNL     1       0.323   0.240  -1.945  1.00  0.00     0.132 C 
HETATM   11  C22 UNL     1       2.613  -1.724  -3.520  1.00  0.00    -0.009 C 
ENDROOT
BRANCH   6  12
HETATM   12  C14 UNL     1       0.686  -1.520   1.492  1.00  0.00     0.001 C 
HETATM   13  C15 UNL     1       1.704  -2.526   2.089  1.00  0.00     0.000 C 
BRANCH  12  14
HETATM   14  C16 UNL     1       0.864  -0.197   2.290  1.00  0.00     0.005 C 
BRANCH  14  15
HETATM   15  C17 UNL     1      -0.302   0.807   2.293  1.00  0.00     0.025 C 
BRANCH  15  16
HETATM   16  C18 UNL     1      -0.340   1.742   3.477  1.00  0.00    -0.035 C 
HETATM   17  C19 UNL     1      -1.223   2.746   3.630  1.00  0.00    -0.048 C 
HETATM   18  C20 UNL     1      -1.214   3.624   4.858  1.00  0.00     0.026 C 
HETATM   19  C21 UNL     1      -2.290   3.088   2.617  1.00  0.00     0.026 C 
ENDBRANCH  15  16
ENDBRANCH  14  15
ENDBRANCH  12  14
ENDBRANCH   6  12
BRANCH   8  20
HETATM   20  C10 UNL     1      -2.476  -1.797  -0.162  1.00  0.00     0.230 C 
HETATM   21  O1  UNL     1      -3.429  -2.528  -0.390  1.00  0.00    -0.283 OA
ENDBRANCH   8  20
BRANCH  10  22
HETATM   22  O2  UNL     1      -0.484   1.359  -2.204  1.00  0.00    -0.304 OA
BRANCH  22  23
HETATM   23  C12 UNL     1      -0.224   2.508  -1.521  1.00  0.00     0.272 C 
HETATM   24  C13 UNL     1      -1.220   3.583  -1.905  1.00  0.00     0.106 C 
HETATM   25  O3  UNL     1       0.664   2.656  -0.713  1.00  0.00    -0.264 OA
ENDBRANCH  22  23
ENDBRANCH  10  22
TORSDOF 7
