REMARK  12 active torsions:
REMARK  status: ('A' for Active; 'I' for Inactive)
REMARK    1  A    between atoms: C4_4  and  C8_8 
REMARK    2  A    between atoms: C8_8  and  C9_9 
REMARK    3  A    between atoms: C9_9  and  C10_10 
REMARK    4  A    between atoms: C11_11  and  C12_12 
REMARK    5  A    between atoms: C12_12  and  C13_13 
REMARK    6  A    between atoms: C13_13  and  C14_14 
REMARK    7  A    between atoms: C15_15  and  C16_16 
REMARK    8  A    between atoms: C16_16  and  C17_17 
REMARK    9  A    between atoms: C17_17  and  C18_18 
REMARK   10  A    between atoms: C19_19  and  C21_21 
REMARK   11  A    between atoms: C21_21  and  C22_22 
REMARK   12  A    between atoms: C22_22  and  C23_23 
ROOT
HETATM    1  C12 UNL     1       8.716   0.183  -0.473  1.00  0.00     0.030 C 
ENDROOT
BRANCH   1   2
HETATM    2  C11 UNL     1      10.015   0.776  -0.960  1.00  0.00    -0.034 C 
HETATM    3  C10 UNL     1      11.174   0.103  -1.082  1.00  0.00    -0.048 C 
HETATM    4  C28 UNL     1      11.326  -1.357  -0.722  1.00  0.00     0.026 C 
BRANCH   3   5
HETATM    5  C9  UNL     1      12.423   0.780  -1.613  1.00  0.00     0.022 C 
BRANCH   5   6
HETATM    6  C8  UNL     1      13.511   0.958  -0.539  1.00  0.00     0.008 C 
BRANCH   6   7
HETATM    7  C4  UNL     1      14.761   1.697  -1.063  1.00  0.00     0.021 C 
HETATM    8  C3  UNL     1      15.920   1.921  -0.050  1.00  0.00     0.032 C 
HETATM    9  C2  UNL     1      16.773   0.652   0.167  1.00  0.00     0.153 C 
HETATM   10  C29 UNL     1      16.839   3.037  -0.614  1.00  0.00     0.003 C 
HETATM   11  C30 UNL     1      15.395   2.442   1.307  1.00  0.00     0.003 C 
HETATM   12  C1  UNL     1      17.220  -0.027  -1.128  1.00  0.00     0.037 C 
HETATM   13  O1  UNL     1      16.084  -0.294   0.950  1.00  0.00    -0.223 OA
HETATM   14  C6  UNL     1      16.037  -0.283  -2.068  1.00  0.00     0.025 C 
HETATM   15  C5  UNL     1      15.308   1.016  -2.303  1.00  0.00    -0.044 C 
HETATM   16  C7  UNL     1      15.159   1.536  -3.532  1.00  0.00    -0.009 C 
ENDBRANCH   6   7
ENDBRANCH   5   6
ENDBRANCH   3   5
ENDBRANCH   1   2
BRANCH   1  17
HETATM   17  C13 UNL     1       7.533   1.165  -0.554  1.00  0.00     0.030 C 
BRANCH  17  18
HETATM   18  C14 UNL     1       6.242   0.519  -0.115  1.00  0.00    -0.034 C 
HETATM   19  C15 UNL     1       5.004   1.026  -0.263  1.00  0.00    -0.048 C 
HETATM   20  C27 UNL     1       4.740   2.371  -0.897  1.00  0.00     0.026 C 
BRANCH  19  21
HETATM   21  C16 UNL     1       3.820   0.199   0.203  1.00  0.00     0.026 C 
BRANCH  21  22
HETATM   22  C17 UNL     1       2.426   0.836   0.079  1.00  0.00     0.030 C 
BRANCH  22  23
HETATM   23  C18 UNL     1       1.333  -0.091   0.561  1.00  0.00    -0.034 C 
HETATM   24  C19 UNL     1       0.016   0.183   0.549  1.00  0.00    -0.048 C 
HETATM   25  C20 UNL     1      -0.543   1.492   0.037  1.00  0.00     0.026 C 
BRANCH  24  26
HETATM   26  C21 UNL     1      -1.047  -0.780   1.046  1.00  0.00     0.026 C 
BRANCH  26  27
HETATM   27  C22 UNL     1      -0.570  -2.146   1.570  1.00  0.00     0.030 C 
BRANCH  27  28
HETATM   28  C23 UNL     1      -1.712  -3.017   2.036  1.00  0.00    -0.034 C 
HETATM   29  C24 UNL     1      -1.603  -4.302   2.419  1.00  0.00    -0.048 C 
HETATM   30  C25 UNL     1      -2.810  -5.095   2.863  1.00  0.00     0.026 C 
HETATM   31  C26 UNL     1      -0.300  -5.066   2.438  1.00  0.00     0.026 C 
ENDBRANCH  27  28
ENDBRANCH  26  27
ENDBRANCH  24  26
ENDBRANCH  22  23
ENDBRANCH  21  22
ENDBRANCH  19  21
ENDBRANCH  17  18
ENDBRANCH   1  17
TORSDOF 12
