REMARK  4 active torsions:
REMARK  status: ('A' for Active; 'I' for Inactive)
REMARK    1  A    between atoms: C6_7  and  C8_9 
REMARK    2  A    between atoms: C19_21  and  C28_32 
REMARK    3  A    between atoms: C22_24  and  C26_28 
REMARK    4  A    between atoms: C26_28  and  O3_29 
ROOT
HETATM    1  O1  UNL     1      -2.293   1.325   1.571  1.00  0.00    -0.220 OA
HETATM    2  C1  UNL     1      -2.013   0.280   0.672  1.00  0.00     0.189 C 
HETATM    3  C2  UNL     1      -1.265   0.877  -0.503  1.00  0.00     0.183 C 
HETATM    4  C3  UNL     1       0.147   1.367  -0.176  1.00  0.00     0.036 C 
HETATM    5  C4  UNL     1       0.964   0.477   0.815  1.00  0.00     0.003 C 
HETATM    6  C5  UNL     1       0.247  -0.898   0.919  1.00  0.00     0.009 C 
HETATM    7  C6  UNL     1      -1.256  -0.891   1.332  1.00  0.00     0.089 C 
HETATM    8  C7  UNL     1      -1.494  -0.951   2.857  1.00  0.00     0.011 C 
HETATM    9  C9  UNL     1       1.099  -1.913   1.701  1.00  0.00     0.001 C 
HETATM   10  C10 UNL     1       2.441  -2.155   0.997  1.00  0.00     0.000 C 
HETATM   11  C11 UNL     1       3.311  -0.884   0.823  1.00  0.00     0.004 C 
HETATM   12  C12 UNL     1       2.412   0.250   0.235  1.00  0.00     0.005 C 
HETATM   13  C13 UNL     1       3.222   1.543   0.028  1.00  0.00     0.025 C 
HETATM   14  C14 UNL     1       4.634   1.330  -0.439  1.00  0.00    -0.035 C 
HETATM   15  C15 UNL     1       5.265   0.146  -0.459  1.00  0.00    -0.049 C 
HETATM   16  C16 UNL     1       4.545  -1.159  -0.133  1.00  0.00     0.015 C 
HETATM   17  C17 UNL     1       5.594  -2.158   0.443  1.00  0.00     0.004 C 
HETATM   18  C18 UNL     1       6.778  -1.551   1.218  1.00  0.00     0.011 C 
HETATM   19  C19 UNL     1       7.493  -0.367   0.516  1.00  0.00     0.082 C 
HETATM   20  C20 UNL     1       6.743   0.009  -0.778  1.00  0.00     0.028 C 
HETATM   21  C21 UNL     1       7.411   1.111  -1.624  1.00  0.00     0.014 C 
HETATM   22  C22 UNL     1       8.886   0.834  -1.996  1.00  0.00     0.078 C 
HETATM   23  C23 UNL     1       9.604   0.389  -0.686  1.00  0.00     0.010 C 
HETATM   24  C24 UNL     1       8.925  -0.752   0.089  1.00  0.00     0.011 C 
HETATM   25  C25 UNL     1       9.065  -0.287  -3.042  1.00  0.00     0.010 C 
HETATM   26  C29 UNL     1       4.124  -1.741  -1.516  1.00  0.00     0.004 C 
HETATM   27  C30 UNL     1       3.856  -0.488   2.214  1.00  0.00     0.000 C 
HETATM   28  C31 UNL     1       0.971   1.216   2.176  1.00  0.00     0.000 C 
HETATM   29  O7  UNL     1      -2.029   1.962  -0.978  1.00  0.00    -0.221 OA
ENDROOT
BRANCH  22  30
HETATM   30  C26 UNL     1       9.659   2.077  -2.507  1.00  0.00     0.271 C 
HETATM   31  O4  UNL     1      10.743   2.351  -2.033  1.00  0.00    -0.264 OA
BRANCH  30  32
HETATM   32  O3  UNL     1       9.197   2.821  -3.555  1.00  0.00    -0.299 OA
HETATM   33  C27 UNL     1       7.918   2.755  -4.127  1.00  0.00     0.184 C 
ENDBRANCH  30  32
ENDBRANCH  22  30
BRANCH  19  34
HETATM   34  C28 UNL     1       7.639   0.729   1.581  1.00  0.00     0.184 C 
HETATM   35  O5  UNL     1       6.957   1.856   1.331  1.00  0.00    -0.647 OA
HETATM   36  O6  UNL     1       8.282   0.627   2.599  1.00  0.00    -0.647 OA
ENDBRANCH  19  34
BRANCH   7  37
HETATM   37  C8  UNL     1      -1.939  -2.168   0.808  1.00  0.00     0.209 C 
HETATM   38  O2  UNL     1      -1.440  -2.930   0.013  1.00  0.00    -0.288 OA
ENDBRANCH   7  37
TORSDOF 4
