REMARK  1 active torsions:
REMARK  status: ('A' for Active; 'I' for Inactive)
REMARK    1  A    between atoms: C6_6  and  C12_12 
ROOT
HETATM    1  C1  UNL     1      -2.141  -2.726   0.057  1.00  0.00     0.030 C 
HETATM    2  C2  UNL     1      -0.668  -3.119   0.319  1.00  0.00     0.027 C 
HETATM    3  C3  UNL     1       0.230  -2.143  -0.420  1.00  0.00    -0.041 C 
HETATM    4  C4  UNL     1       0.485  -0.958   0.172  1.00  0.00     0.029 C 
HETATM    5  C5  UNL     1       1.077   0.247  -0.468  1.00  0.00     0.172 C 
HETATM    6  C6  UNL     1       0.494   1.593  -0.020  1.00  0.00     0.062 C 
HETATM    7  C7  UNL     1      -0.846   1.903  -0.735  1.00  0.00     0.012 C 
HETATM    8  C8  UNL     1      -2.133   1.195  -0.257  1.00  0.00     0.022 C 
HETATM    9  C9  UNL     1      -2.251  -0.268  -0.648  1.00  0.00    -0.048 C 
HETATM   10  C10 UNL     1      -2.315  -1.237   0.286  1.00  0.00    -0.034 C 
HETATM   11  C11 UNL     1      -2.236  -0.520  -2.139  1.00  0.00     0.026 C 
HETATM   12  O1  UNL     1       1.952   0.189  -1.321  1.00  0.00    -0.291 OA
HETATM   13  C15 UNL     1       0.576  -2.519  -1.839  1.00  0.00     0.026 C 
ENDROOT
BRANCH   6  14
HETATM   14  C12 UNL     1       0.486   1.837   1.509  1.00  0.00     0.007 C 
HETATM   15  C13 UNL     1       0.074   3.276   1.873  1.00  0.00     0.000 C 
HETATM   16  C14 UNL     1       1.864   1.541   2.132  1.00  0.00     0.000 C 
ENDBRANCH   6  14
TORSDOF 1
