REMARK  5 active torsions:
REMARK  status: ('A' for Active; 'I' for Inactive)
REMARK    1  A    between atoms: C2_2  and  C3_3 
REMARK    2  A    between atoms: C3_3  and  C4_5 
REMARK    3  A    between atoms: C4_5  and  C5_6 
REMARK    4  A    between atoms: C6_7  and  O2_8 
REMARK    5  A    between atoms: C8_10  and  C12_16 
ROOT
HETATM    1  C5  UNL     1       0.210   0.747   0.342  1.00  0.00     0.029 A 
HETATM    2  C6  UNL     1       0.625  -0.460   0.943  1.00  0.00     0.097 A 
HETATM    3  C8  UNL     1      -0.370  -1.385   1.317  1.00  0.00     0.082 A 
HETATM    4  C9  UNL     1      -1.723  -1.208   1.006  1.00  0.00     0.138 A 
HETATM    5  C10 UNL     1      -2.081  -0.021   0.372  1.00  0.00     0.055 A 
HETATM    6  C11 UNL     1      -1.145   0.955   0.029  1.00  0.00     0.131 A 
HETATM    7  O3  UNL     1      -1.591   2.102  -0.552  1.00  0.00    -0.190 OA
HETATM    8  O4  UNL     1      -2.679  -2.088   1.407  1.00  0.00    -0.190 OA
ENDROOT
BRANCH   1   9
HETATM    9  C4  UNL     1       1.201   1.862   0.022  1.00  0.00     0.068 C 
BRANCH   9  10
HETATM   10  C3  UNL     1       2.420   1.447  -0.808  1.00  0.00     0.175 C 
HETATM   11  O1  UNL     1       3.533   1.314   0.062  1.00  0.00    -0.219 OA
BRANCH  10  12
HETATM   12  C2  UNL     1       2.726   2.401  -1.945  1.00  0.00    -0.014 C 
HETATM   13  C1  UNL     1       1.929   2.443  -3.026  1.00  0.00    -0.007 C 
HETATM   14  C14 UNL     1       3.945   3.283  -1.831  1.00  0.00     0.029 C 
ENDBRANCH  10  12
ENDBRANCH   9  10
ENDBRANCH   1   9
BRANCH   2  15
HETATM   15  O2  UNL     1       1.942  -0.652   1.276  1.00  0.00    -0.328 OA
HETATM   16  C7  UNL     1       2.597  -1.697   0.587  1.00  0.00     0.181 C 
ENDBRANCH   2  15
BRANCH   3  17
HETATM   17  C12 UNL     1       0.011  -2.641   2.053  1.00  0.00     0.177 C 
HETATM   18  O5  UNL     1       0.659  -2.609   3.087  1.00  0.00    -0.291 OA
HETATM   19  C13 UNL     1      -0.406  -3.969   1.446  1.00  0.00     0.077 C 
ENDBRANCH   3  17
TORSDOF 5
