REMARK  0 active torsions:
REMARK  status: ('A' for Active; 'I' for Inactive)
ROOT
HETATM    1  C1  UNL     1      -2.031   0.500  -1.303  1.00  0.00     0.030 C 
HETATM    2  C2  UNL     1      -1.887  -0.974  -1.607  1.00  0.00    -0.028 C 
HETATM    3  C3  UNL     1      -0.973  -1.785  -1.049  1.00  0.00     0.000 C 
HETATM    4  C4  UNL     1      -0.010  -1.329   0.018  1.00  0.00     0.135 C 
HETATM    5  C5  UNL     1      -0.051   0.185   0.068  1.00  0.00    -0.011 C 
HETATM    6  C6  UNL     1      -1.351   0.955   0.009  1.00  0.00     0.022 C 
HETATM    7  C7  UNL     1      -1.118   2.481  -0.039  1.00  0.00     0.004 C 
HETATM    8  C8  UNL     1      -2.265   0.665   1.214  1.00  0.00     0.004 C 
HETATM    9  C9  UNL     1       1.198   0.676   0.006  1.00  0.00     0.062 C 
HETATM   10  C10 UNL     1       2.049  -0.509  -0.199  1.00  0.00     0.296 C 
HETATM   11  O1  UNL     1       1.340  -1.669  -0.287  1.00  0.00    -0.295 OA
HETATM   12  O2  UNL     1       3.267  -0.448  -0.339  1.00  0.00    -0.259 OA
HETATM   13  C11 UNL     1      -0.331  -2.010   1.352  1.00  0.00     0.039 C 
ENDROOT
TORSDOF 0
