REMARK  9 active torsions:
REMARK  status: ('A' for Active; 'I' for Inactive)
REMARK    1  A    between atoms: C3_3  and  O3_7 
REMARK    2  A    between atoms: C7_11  and  C8_12 
REMARK    3  A    between atoms: C8_12  and  C9_13 
REMARK    4  A    between atoms: C9_13  and  C10_14 
REMARK    5  A    between atoms: C10_14  and  C11_15 
REMARK    6  A    between atoms: C11_15  and  C12_16 
REMARK    7  A    between atoms: C12_16  and  C13_17 
REMARK    8  A    between atoms: C13_17  and  C14_18 
REMARK    9  A    between atoms: C14_18  and  C15_19 
ROOT
HETATM    1  C1  UNL     1       0.054   2.470   2.857  1.00  0.00     0.072 C 
HETATM    2  C2  UNL     1       1.354   2.909   3.462  1.00  0.00     0.231 C 
HETATM    3  C3  UNL     1       2.183   3.163   2.198  1.00  0.00     0.228 C 
HETATM    4  O1  UNL     1       1.287   3.572   1.182  1.00  0.00    -0.275 OA
HETATM    5  C4  UNL     1       0.050   3.135   1.539  1.00  0.00     0.296 C 
HETATM    6  O2  UNL     1      -0.940   3.304   0.835  1.00  0.00    -0.259 OA
HETATM    7  C6  UNL     1       2.889   1.878   1.772  1.00  0.00     0.065 C 
HETATM    8  O4  UNL     1       1.172   4.133   4.152  1.00  0.00    -0.213 OA
HETATM    9  C7  UNL     1      -0.825   1.569   3.332  1.00  0.00    -0.022 C 
ENDROOT
BRANCH   9  10
HETATM   10  C8  UNL     1      -1.952   0.966   2.529  1.00  0.00     0.026 C 
BRANCH  10  11
HETATM   11  C9  UNL     1      -1.336   0.067   1.444  1.00  0.00     0.005 C 
BRANCH  11  12
HETATM   12  C10 UNL     1      -2.354  -0.689   0.577  1.00  0.00     0.000 C 
BRANCH  12  13
HETATM   13  C11 UNL     1      -1.646  -1.248  -0.669  1.00  0.00     0.000 C 
BRANCH  13  14
HETATM   14  C12 UNL     1      -2.494  -2.232  -1.488  1.00  0.00     0.000 C 
BRANCH  14  15
HETATM   15  C13 UNL     1      -1.768  -2.602  -2.794  1.00  0.00     0.000 C 
BRANCH  15  16
HETATM   16  C14 UNL     1      -2.448  -3.748  -3.557  1.00  0.00     0.000 C 
BRANCH  16  17
HETATM   17  C15 UNL     1      -1.733  -4.034  -4.889  1.00  0.00     0.000 C 
HETATM   18  C16 UNL     1      -2.330  -5.245  -5.615  1.00  0.00     0.000 C 
ENDBRANCH  16  17
ENDBRANCH  15  16
ENDBRANCH  14  15
ENDBRANCH  13  14
ENDBRANCH  12  13
ENDBRANCH  11  12
ENDBRANCH  10  11
ENDBRANCH   9  10
BRANCH   3  19
HETATM   19  O3  UNL     1       3.071   4.217   2.478  1.00  0.00    -0.329 OA
HETATM   20  C5  UNL     1       4.002   4.489   1.456  1.00  0.00     0.177 C 
ENDBRANCH   3  19
TORSDOF 9
