REMARK  6 active torsions:
REMARK  status: ('A' for Active; 'I' for Inactive)
REMARK    1  A    between atoms: C4_4  and  C7_8 
REMARK    2  A    between atoms: C7_8  and  C8_9 
REMARK    3  A    between atoms: C15_18  and  C17_21 
REMARK    4  A    between atoms: C17_21  and  C18_22 
REMARK    5  A    between atoms: C18_22  and  C19_23 
REMARK    6  A    between atoms: C19_23  and  C20_24 
ROOT
HETATM    1  C8  UNL     1      -0.716   1.655   0.209  1.00  0.00     0.033 A 
HETATM    2  C9  UNL     1      -1.413   0.447   0.053  1.00  0.00     0.134 A 
HETATM    3  O2  UNL     1      -2.748   0.481  -0.217  1.00  0.00    -0.190 OA
HETATM    4  C10 UNL     1      -0.711  -0.758   0.244  1.00  0.00     0.087 A 
HETATM    5  C11 UNL     1      -1.420  -2.067   0.158  1.00  0.00     0.201 C 
HETATM    6  C12 UNL     1      -0.724  -3.205   0.805  1.00  0.00     0.062 A 
HETATM    7  C13 UNL     1       0.634  -3.054   1.114  1.00  0.00     0.103 A 
HETATM    8  O3  UNL     1       1.337  -1.945   0.761  1.00  0.00    -0.307 OA
HETATM    9  C14 UNL     1       0.655  -0.778   0.573  1.00  0.00     0.110 A 
HETATM   10  C15 UNL     1       1.325   0.453   0.700  1.00  0.00     0.083 A 
HETATM   11  C16 UNL     1       0.648   1.675   0.538  1.00  0.00     0.134 A 
HETATM   12  O4  UNL     1       1.273   2.876   0.687  1.00  0.00    -0.190 OA
HETATM   13  C26 UNL     1       1.275  -4.124   1.749  1.00  0.00     0.025 A 
HETATM   14  C27 UNL     1       0.589  -5.292   2.090  1.00  0.00     0.002 A 
HETATM   15  C28 UNL     1      -0.765  -5.418   1.782  1.00  0.00     0.000 A 
HETATM   16  C29 UNL     1      -1.426  -4.372   1.137  1.00  0.00     0.005 A 
HETATM   17  O6  UNL     1      -2.527  -2.212  -0.348  1.00  0.00    -0.286 OA
ENDROOT
BRANCH  10  18
HETATM   18  C17 UNL     1       2.796   0.467   1.008  1.00  0.00     0.177 C 
HETATM   19  O5  UNL     1       3.279   1.350   1.704  1.00  0.00    -0.291 OA
BRANCH  18  20
HETATM   20  C18 UNL     1       3.713  -0.590   0.402  1.00  0.00     0.074 C 
BRANCH  20  21
HETATM   21  C19 UNL     1       5.151  -0.116   0.133  1.00  0.00     0.035 C 
BRANCH  21  22
HETATM   22  C20 UNL     1       6.112  -1.179  -0.369  1.00  0.00    -0.022 A 
HETATM   23  C21 UNL     1       7.483  -0.891  -0.409  1.00  0.00    -0.004 A 
HETATM   24  C22 UNL     1       8.415  -1.837  -0.845  1.00  0.00    -0.000 A 
HETATM   25  C23 UNL     1       7.987  -3.099  -1.255  1.00  0.00    -0.000 A 
HETATM   26  C24 UNL     1       6.625  -3.404  -1.228  1.00  0.00    -0.000 A 
HETATM   27  C25 UNL     1       5.702  -2.452  -0.789  1.00  0.00    -0.004 A 
ENDBRANCH  21  22
ENDBRANCH  20  21
ENDBRANCH  18  20
ENDBRANCH  10  18
BRANCH   1  28
HETATM   28  C7  UNL     1      -1.452   2.977   0.059  1.00  0.00     0.059 C 
BRANCH  28  29
HETATM   29  C4  UNL     1      -0.790   3.961  -0.884  1.00  0.00     0.008 A 
HETATM   30  C3  UNL     1      -0.189   3.495  -2.061  1.00  0.00    -0.002 A 
HETATM   31  C2  UNL     1       0.454   4.364  -2.943  1.00  0.00    -0.000 A 
HETATM   32  C1  UNL     1       0.479   5.730  -2.664  1.00  0.00     0.002 A 
HETATM   33  C6  UNL     1      -0.144   6.202  -1.509  1.00  0.00     0.027 A 
HETATM   34  C5  UNL     1      -0.782   5.340  -0.610  1.00  0.00     0.127 A 
HETATM   35  O1  UNL     1      -1.372   5.849   0.504  1.00  0.00    -0.191 OA
ENDBRANCH  28  29
ENDBRANCH   1  28
TORSDOF 6
