REMARK  4 active torsions:
REMARK  status: ('A' for Active; 'I' for Inactive)
REMARK    1  A    between atoms: C6_6  and  O1_7 
REMARK    2  A    between atoms: O1_7  and  C7_8 
REMARK    3  A    between atoms: C18_24  and  C20_27 
REMARK    4  A    between atoms: C20_27  and  O8_28 
ROOT
HETATM    1  C1  UNL     1      -1.800   0.167  -1.112  1.00  0.00     0.030 C 
HETATM    2  C2  UNL     1      -2.204  -0.646   0.118  1.00  0.00     0.003 C 
HETATM    3  C3  UNL     1      -1.268  -1.855   0.317  1.00  0.00     0.003 C 
HETATM    4  C4  UNL     1       0.193  -1.326   0.390  1.00  0.00     0.040 C 
HETATM    5  C5  UNL     1       0.719  -0.312  -0.680  1.00  0.00     0.059 C 
HETATM    6  C6  UNL     1      -0.383   0.731  -0.989  1.00  0.00     0.127 C 
HETATM    7  C9  UNL     1       2.038   0.338  -0.092  1.00  0.00     0.046 C 
HETATM    8  C10 UNL     1       3.118  -0.774  -0.039  1.00  0.00     0.106 C 
HETATM    9  C11 UNL     1       2.437  -2.109  -0.293  1.00  0.00     0.253 C 
HETATM   10  C12 UNL     1       1.236  -2.432   0.565  1.00  0.00     0.206 C 
HETATM   11  O3  UNL     1       1.574  -2.588   1.922  1.00  0.00    -0.218 OA
HETATM   12  O4  UNL     1       3.358  -3.173  -0.237  1.00  0.00    -0.192 OA
HETATM   13  O5  UNL     1       2.018  -2.161  -1.628  1.00  0.00    -0.330 OA
HETATM   14  C13 UNL     1       1.160  -1.085  -1.936  1.00  0.00     0.147 C 
HETATM   15  C14 UNL     1       4.298  -0.484  -0.988  1.00  0.00     0.013 C 
HETATM   16  C15 UNL     1       4.929   0.744  -0.320  1.00  0.00     0.013 C 
HETATM   17  C16 UNL     1       4.053   1.942  -0.700  1.00  0.00     0.034 C 
HETATM   18  C17 UNL     1       2.543   1.650  -0.733  1.00  0.00     0.153 C 
HETATM   19  O6  UNL     1       1.906   2.763  -0.137  1.00  0.00    -0.223 OA
HETATM   20  C18 UNL     1       4.943   0.395   1.184  1.00  0.00     0.087 C 
HETATM   21  C19 UNL     1       3.882  -0.686   1.281  1.00  0.00     0.157 C 
HETATM   22  O7  UNL     1       3.719  -1.395   2.244  1.00  0.00    -0.296 OA
HETATM   23  C22 UNL     1      -1.648  -2.518   1.666  1.00  0.00     0.000 C 
HETATM   24  C23 UNL     1      -1.553  -2.912  -0.776  1.00  0.00     0.000 C 
ENDROOT
BRANCH   6  25
HETATM   25  O1  UNL     1      -0.124   1.409  -2.190  1.00  0.00    -0.304 OA
BRANCH  25  26
HETATM   26  C7  UNL     1      -0.265   2.761  -2.224  1.00  0.00     0.272 C 
HETATM   27  C8  UNL     1       0.009   3.297  -3.613  1.00  0.00     0.106 C 
HETATM   28  O2  UNL     1      -0.525   3.446  -1.262  1.00  0.00    -0.264 OA
ENDBRANCH  25  26
ENDBRANCH   6  25
BRANCH  20  29
HETATM   29  C20 UNL     1       4.721   1.556   2.153  1.00  0.00     0.150 C 
BRANCH  29  30
HETATM   30  O8  UNL     1       4.856   1.105   3.478  1.00  0.00    -0.351 OA
HETATM   31  C21 UNL     1       4.578   2.123   4.416  1.00  0.00     0.174 C 
ENDBRANCH  29  30
ENDBRANCH  20  29
TORSDOF 4
