REMARK  6 active torsions:
REMARK  status: ('A' for Active; 'I' for Inactive)
REMARK    1  A    between atoms: C6_6  and  O1_7 
REMARK    2  A    between atoms: O1_7  and  C7_8 
REMARK    3  A    between atoms: C11_13  and  O3_15 
REMARK    4  A    between atoms: O3_15  and  C13_16 
REMARK    5  A    between atoms: C18_22  and  O5_23 
REMARK    6  A    between atoms: O5_23  and  C19_24 
ROOT
HETATM    1  C1  UNL     1       5.075  -0.791  -2.223  1.00  0.00     0.063 C 
HETATM    2  C2  UNL     1       5.925   0.280  -1.560  1.00  0.00     0.154 C 
HETATM    3  C3  UNL     1       5.146   1.584  -1.317  1.00  0.00     0.029 C 
HETATM    4  C4  UNL     1       3.800   1.248  -0.610  1.00  0.00     0.007 C 
HETATM    5  C5  UNL     1       2.861   0.141  -1.206  1.00  0.00     0.028 C 
HETATM    6  C6  UNL     1       3.776  -1.103  -1.465  1.00  0.00     0.127 C 
HETATM    7  C9  UNL     1       1.730  -0.155  -0.124  1.00  0.00     0.035 C 
HETATM    8  C10 UNL     1       1.061   1.074   0.585  1.00  0.00     0.060 C 
HETATM    9  C11 UNL     1       2.076   2.150   0.999  1.00  0.00     0.127 C 
HETATM   10  C12 UNL     1       3.010   2.491  -0.159  1.00  0.00     0.030 C 
HETATM   11  C15 UNL     1      -0.054   1.653  -0.317  1.00  0.00     0.009 C 
HETATM   12  C16 UNL     1      -1.142   0.577  -0.217  1.00  0.00     0.023 C 
HETATM   13  C17 UNL     1      -0.687  -0.668  -0.982  1.00  0.00     0.034 C 
HETATM   14  C18 UNL     1       0.655  -1.223  -0.475  1.00  0.00     0.125 C 
HETATM   15  C21 UNL     1      -1.133   0.284   1.256  1.00  0.00    -0.015 C 
HETATM   16  C22 UNL     1       0.193   0.707   1.821  1.00  0.00     0.173 C 
HETATM   17  O7  UNL     1       0.757  -0.306   2.628  1.00  0.00    -0.219 OA
HETATM   18  C23 UNL     1      -2.121  -0.294   1.948  1.00  0.00    -0.007 C 
HETATM   19  C24 UNL     1       2.236   0.549  -2.558  1.00  0.00     0.003 C 
HETATM   20  C25 UNL     1       4.968   2.363  -2.639  1.00  0.00     0.003 C 
HETATM   21  C26 UNL     1       6.046   2.487  -0.427  1.00  0.00     0.003 C 
HETATM   22  O8  UNL     1       6.416  -0.249  -0.348  1.00  0.00    -0.223 OA
ENDROOT
BRANCH   6  23
HETATM   23  O1  UNL     1       3.127  -2.082  -2.229  1.00  0.00    -0.304 OA
BRANCH  23  24
HETATM   24  C7  UNL     1       3.196  -3.422  -1.980  1.00  0.00     0.272 C 
HETATM   25  O2  UNL     1       2.718  -4.238  -2.739  1.00  0.00    -0.264 OA
HETATM   26  C8  UNL     1       3.854  -3.855  -0.682  1.00  0.00     0.106 C 
ENDBRANCH  23  24
ENDBRANCH   6  23
BRANCH  14  27
HETATM   27  O5  UNL     1       0.436  -2.029   0.654  1.00  0.00    -0.304 OA
BRANCH  27  28
HETATM   28  C19 UNL     1      -0.013  -3.303   0.492  1.00  0.00     0.272 C 
HETATM   29  C20 UNL     1      -0.206  -3.960   1.844  1.00  0.00     0.106 C 
HETATM   30  O6  UNL     1      -0.236  -3.837  -0.571  1.00  0.00    -0.264 OA
ENDBRANCH  27  28
ENDBRANCH  14  27
BRANCH   9  31
HETATM   31  O3  UNL     1       2.849   1.690   2.077  1.00  0.00    -0.304 OA
BRANCH  31  32
HETATM   32  C13 UNL     1       2.639   2.183   3.326  1.00  0.00     0.272 C 
HETATM   33  C14 UNL     1       3.473   1.409   4.327  1.00  0.00     0.106 C 
HETATM   34  O4  UNL     1       1.882   3.083   3.611  1.00  0.00    -0.264 OA
ENDBRANCH  31  32
ENDBRANCH   9  31
TORSDOF 6
