REMARK  4 active torsions:
REMARK  status: ('A' for Active; 'I' for Inactive)
REMARK    1  A    between atoms: C1_2  and  O2_3 
REMARK    2  A    between atoms: O2_3  and  C2_4 
REMARK    3  A    between atoms: C16_19  and  C18_21 
REMARK    4  A    between atoms: C18_21  and  C20_23 
ROOT
HETATM    1  C2  UNL     1      -0.015   0.730   0.177  1.00  0.00     0.130 C 
HETATM    2  C3  UNL     1       0.794   1.967   0.549  1.00  0.00     0.064 C 
HETATM    3  C4  UNL     1       2.284   1.667   0.719  1.00  0.00     0.158 C 
HETATM    4  C5  UNL     1       2.991   1.042  -0.516  1.00  0.00     0.052 C 
HETATM    5  C6  UNL     1       2.056  -0.107  -1.030  1.00  0.00    -0.002 C 
HETATM    6  C7  UNL     1       0.514   0.111  -1.134  1.00  0.00     0.044 C 
HETATM    7  C8  UNL     1       0.070   0.995  -2.327  1.00  0.00     0.007 C 
HETATM    8  C9  UNL     1      -0.221  -1.246  -1.335  1.00  0.00     0.007 C 
HETATM    9  C10 UNL     1       2.659  -0.815  -2.233  1.00  0.00     0.187 C 
HETATM   10  C11 UNL     1       4.078  -1.187  -2.087  1.00  0.00     0.033 C 
HETATM   11  C12 UNL     1       4.857  -0.672  -1.119  1.00  0.00    -0.038 C 
HETATM   12  C13 UNL     1       4.385   0.401  -0.141  1.00  0.00     0.055 C 
HETATM   13  C14 UNL     1       5.642   1.276   0.054  1.00  0.00     0.157 C 
HETATM   14  O3  UNL     1       5.413   2.446   0.793  1.00  0.00    -0.223 OA
HETATM   15  C15 UNL     1       6.742   0.516   0.807  1.00  0.00     0.038 C 
HETATM   16  C16 UNL     1       7.048  -0.874   0.226  1.00  0.00     0.027 C 
HETATM   17  C17 UNL     1       6.305  -1.112  -1.093  1.00  0.00     0.026 C 
HETATM   18  O5  UNL     1       2.051  -1.162  -3.236  1.00  0.00    -0.287 OA
HETATM   19  C21 UNL     1       3.229   2.095  -1.618  1.00  0.00     0.007 C 
HETATM   20  O6  UNL     1       2.852   2.890   1.121  1.00  0.00    -0.223 OA
ENDROOT
BRANCH   1  21
HETATM   21  O2  UNL     1       0.076  -0.187   1.233  1.00  0.00    -0.304 OA
BRANCH  21  22
HETATM   22  C1  UNL     1      -0.977  -0.612   1.989  1.00  0.00     0.272 C 
HETATM   23  O1  UNL     1      -0.840  -1.449   2.856  1.00  0.00    -0.264 OA
HETATM   24  C22 UNL     1      -2.329   0.029   1.729  1.00  0.00     0.106 C 
ENDBRANCH  21  22
ENDBRANCH   1  21
BRANCH  16  25
HETATM   25  C18 UNL     1       6.887  -2.023   1.215  1.00  0.00    -0.011 C 
HETATM   26  C19 UNL     1       7.940  -2.792   1.544  1.00  0.00    -0.007 C 
BRANCH  25  27
HETATM   27  C20 UNL     1       5.515  -2.282   1.797  1.00  0.00     0.205 C 
HETATM   28  O4  UNL     1       5.466  -3.401   2.673  1.00  0.00    -0.216 OA
ENDBRANCH  25  27
ENDBRANCH  16  25
TORSDOF 4
