REMARK  0 active torsions:
REMARK  status: ('A' for Active; 'I' for Inactive)
ROOT
HETATM    1  C1  UNL     1      -1.475  -1.208  -2.962  1.00  0.00     0.065 C 
HETATM    2  C2  UNL     1      -2.391  -1.825  -1.926  1.00  0.00     0.150 C 
HETATM    3  C3  UNL     1      -1.705  -2.618  -0.815  1.00  0.00     0.051 C 
HETATM    4  C4  UNL     1      -0.293  -2.016  -0.557  1.00  0.00     0.006 C 
HETATM    5  C5  UNL     1      -0.129  -0.494  -0.834  1.00  0.00     0.001 C 
HETATM    6  C6  UNL     1      -0.448  -0.246  -2.344  1.00  0.00     0.008 C 
HETATM    7  C7  UNL     1       1.361  -0.068  -0.562  1.00  0.00     0.000 C 
HETATM    8  C8  UNL     1       2.086  -0.544   0.740  1.00  0.00     0.000 C 
HETATM    9  C9  UNL     1       1.790  -2.059   0.894  1.00  0.00     0.000 C 
HETATM   10  C10 UNL     1       0.301  -2.422   0.803  1.00  0.00     0.000 C 
HETATM   11  C11 UNL     1       3.658  -0.270   0.638  1.00  0.00     0.000 C 
HETATM   12  C12 UNL     1       3.926   1.218   0.270  1.00  0.00     0.000 C 
HETATM   13  C13 UNL     1       3.181   1.650  -1.002  1.00  0.00     0.000 C 
HETATM   14  C14 UNL     1       1.669   1.412  -0.859  1.00  0.00     0.000 C 
HETATM   15  C15 UNL     1       5.381   1.756   0.350  1.00  0.00     0.002 C 
HETATM   16  C16 UNL     1       6.101   1.388   1.674  1.00  0.00     0.000 C 
HETATM   17  C17 UNL     1       5.863  -0.101   2.011  1.00  0.00     0.000 C 
HETATM   18  C18 UNL     1       4.384  -0.520   1.989  1.00  0.00     0.000 C 
HETATM   19  C19 UNL     1       7.631   1.629   1.548  1.00  0.00     0.003 C 
HETATM   20  C20 UNL     1       7.960   2.790   0.600  1.00  0.00     0.030 C 
HETATM   21  C21 UNL     1       7.528   2.464  -0.836  1.00  0.00     0.127 C 
HETATM   22  C22 UNL     1       6.316   1.518  -0.852  1.00  0.00     0.030 C 
HETATM   23  O1  UNL     1       7.160   3.666  -1.464  1.00  0.00    -0.226 OA
HETATM   24  C23 UNL     1       8.688   1.873  -1.645  1.00  0.00     0.033 C 
HETATM   25  C24 UNL     1       5.581   2.277   2.830  1.00  0.00     0.000 C 
HETATM   26  C25 UNL     1       4.321  -1.213  -0.402  1.00  0.00     0.000 C 
HETATM   27  C26 UNL     1       1.497   0.148   1.998  1.00  0.00     0.000 C 
HETATM   28  C27 UNL     1      -1.157   0.350  -0.044  1.00  0.00     0.000 C 
HETATM   29  C28 UNL     1      -2.623  -2.654   0.427  1.00  0.00     0.007 C 
HETATM   30  C29 UNL     1      -1.591  -4.073  -1.332  1.00  0.00     0.007 C 
HETATM   31  O2  UNL     1      -3.594  -1.728  -2.019  1.00  0.00    -0.296 OA
ENDROOT
TORSDOF 0
