REMARK  10 active torsions:
REMARK  status: ('A' for Active; 'I' for Inactive)
REMARK    1  A    between atoms: O1_2  and  C2_3 
REMARK    2  A    between atoms: C2_3  and  C3_5 
REMARK    3  A    between atoms: C3_5  and  C4_6 
REMARK    4  A    between atoms: C5_7  and  C6_8 
REMARK    5  A    between atoms: C7_9  and  C8_10 
REMARK    6  A    between atoms: C8_10  and  O4_12 
REMARK    7  A    between atoms: C11_16  and  O6_20 
REMARK    8  A    between atoms: C12_17  and  C13_18 
REMARK    9  A    between atoms: O6_20  and  C15_21 
REMARK   10  A    between atoms: C16_23  and  C20_30 
ROOT
HETATM    1  C6  UNL     1       4.806  -0.574   0.052  1.00  0.00     0.060 C 
HETATM    2  C7  UNL     1       3.914  -1.675  -0.459  1.00  0.00     0.069 C 
HETATM    3  C10 UNL     1       3.023  -1.464  -1.441  1.00  0.00     0.120 C 
HETATM    4  O5  UNL     1       2.799  -0.247  -2.016  1.00  0.00    -0.303 OA
HETATM    5  C11 UNL     1       3.369   0.879  -1.384  1.00  0.00     0.246 C 
HETATM    6  C12 UNL     1       4.805   0.590  -0.959  1.00  0.00     0.087 C 
ENDROOT
BRANCH   5   7
HETATM    7  O6  UNL     1       2.587   1.123  -0.234  1.00  0.00    -0.303 OA
BRANCH   7   8
HETATM    8  C15 UNL     1       1.239   1.473  -0.477  1.00  0.00     0.272 C 
HETATM    9  O7  UNL     1       1.126   2.843  -0.154  1.00  0.00    -0.326 OA
HETATM   10  C16 UNL     1      -0.191   3.323  -0.287  1.00  0.00     0.184 C 
HETATM   11  C17 UNL     1      -1.140   2.532   0.610  1.00  0.00     0.215 C 
HETATM   12  C18 UNL     1      -1.050   1.053   0.301  1.00  0.00     0.220 C 
HETATM   13  O10 UNL     1      -2.475   2.926   0.409  1.00  0.00    -0.218 OA
HETATM   14  C19 UNL     1       0.394   0.643   0.462  1.00  0.00     0.241 C 
HETATM   15  O9  UNL     1      -1.852   0.331   1.199  1.00  0.00    -0.218 OA
HETATM   16  O8  UNL     1       0.532  -0.718   0.146  1.00  0.00    -0.215 OA
BRANCH  10  17
HETATM   17  C20 UNL     1      -0.212   4.813   0.047  1.00  0.00     0.214 C 
HETATM   18  O11 UNL     1      -0.628   5.561  -1.079  1.00  0.00    -0.218 OA
ENDBRANCH  10  17
ENDBRANCH   7   8
ENDBRANCH   5   7
BRANCH   6  19
HETATM   19  C13 UNL     1       5.656   0.288  -2.175  1.00  0.00    -0.021 C 
HETATM   20  C14 UNL     1       6.780   0.947  -2.488  1.00  0.00    -0.005 C 
ENDBRANCH   6  19
BRANCH   1  21
HETATM   21  C5  UNL     1       6.195  -1.110   0.303  1.00  0.00    -0.025 C 
HETATM   22  C4  UNL     1       6.818  -1.082   1.493  1.00  0.00    -0.020 C 
BRANCH  22  23
HETATM   23  C3  UNL     1       8.193  -1.672   1.692  1.00  0.00     0.121 C 
BRANCH  23  24
HETATM   24  C2  UNL     1       8.762  -1.538   3.101  1.00  0.00     0.276 C 
HETATM   25  O2  UNL     1       8.161  -0.996   4.002  1.00  0.00    -0.264 OA
BRANCH  24  26
HETATM   26  O1  UNL     1      10.004  -2.071   3.294  1.00  0.00    -0.299 OA
HETATM   27  C1  UNL     1      10.714  -2.691   2.248  1.00  0.00     0.184 C 
ENDBRANCH  24  26
ENDBRANCH  23  24
ENDBRANCH  22  23
ENDBRANCH   1  21
BRANCH   2  28
HETATM   28  C8  UNL     1       3.983  -3.038   0.192  1.00  0.00     0.294 C 
HETATM   29  O3  UNL     1       3.806  -3.037   1.402  1.00  0.00    -0.259 OA
BRANCH  28  30
HETATM   30  O4  UNL     1       4.240  -4.213  -0.457  1.00  0.00    -0.296 OA
HETATM   31  C9  UNL     1       4.601  -4.168  -1.815  1.00  0.00     0.185 C 
ENDBRANCH  28  30
ENDBRANCH   2  28
TORSDOF 10
