REMARK  8 active torsions:
REMARK  status: ('A' for Active; 'I' for Inactive)
REMARK    1  A    between atoms: C1_1  and  C16_25 
REMARK    2  A    between atoms: C2_2  and  C3_3 
REMARK    3  A    between atoms: C3_3  and  O2_5 
REMARK    4  A    between atoms: C6_9  and  O4_13 
REMARK    5  A    between atoms: C7_10  and  C8_11 
REMARK    6  A    between atoms: O4_13  and  C10_14 
REMARK    7  A    between atoms: C11_16  and  C15_23 
REMARK    8  A    between atoms: C16_25  and  C17_26 
ROOT
HETATM    1  C1  UNL     1       4.858  -0.190  -0.105  1.00  0.00     0.044 C 
HETATM    2  C2  UNL     1       4.041  -1.418  -0.435  1.00  0.00     0.066 C 
HETATM    3  C5  UNL     1       3.072  -1.396  -1.368  1.00  0.00     0.120 C 
HETATM    4  O3  UNL     1       2.688  -0.283  -2.057  1.00  0.00    -0.303 OA
HETATM    5  C6  UNL     1       3.175   0.952  -1.584  1.00  0.00     0.246 C 
HETATM    6  C7  UNL     1       4.650   0.849  -1.231  1.00  0.00     0.083 C 
ENDROOT
BRANCH   5   7
HETATM    7  O4  UNL     1       2.441   1.229  -0.412  1.00  0.00    -0.303 OA
BRANCH   7   8
HETATM    8  C10 UNL     1       1.075   1.527  -0.610  1.00  0.00     0.272 C 
HETATM    9  O5  UNL     1       0.956   2.914  -0.372  1.00  0.00    -0.326 OA
HETATM   10  C11 UNL     1      -0.374   3.362  -0.430  1.00  0.00     0.184 C 
HETATM   11  C12 UNL     1      -1.221   2.631   0.608  1.00  0.00     0.215 C 
HETATM   12  C13 UNL     1      -1.150   1.138   0.374  1.00  0.00     0.220 C 
HETATM   13  O8  UNL     1      -2.573   3.011   0.527  1.00  0.00    -0.218 OA
HETATM   14  C14 UNL     1       0.304   0.738   0.424  1.00  0.00     0.241 C 
HETATM   15  O7  UNL     1      -1.861   0.467   1.382  1.00  0.00    -0.218 OA
HETATM   16  O6  UNL     1       0.421  -0.634   0.142  1.00  0.00    -0.215 OA
BRANCH  10  17
HETATM   17  C15 UNL     1      -0.392   4.867  -0.199  1.00  0.00     0.214 C 
HETATM   18  O9  UNL     1       0.241   5.529  -1.275  1.00  0.00    -0.218 OA
ENDBRANCH  10  17
ENDBRANCH   7   8
ENDBRANCH   5   7
BRANCH   6  19
HETATM   19  C8  UNL     1       5.464   0.521  -2.464  1.00  0.00    -0.021 C 
HETATM   20  C9  UNL     1       6.374   1.345  -3.003  1.00  0.00    -0.005 C 
ENDBRANCH   6  19
BRANCH   1  21
HETATM   21  C16 UNL     1       6.367  -0.437   0.117  1.00  0.00     0.067 C 
BRANCH  21  22
HETATM   22  C17 UNL     1       6.787  -0.928   1.502  1.00  0.00     0.236 C 
HETATM   23  O10 UNL     1       6.912  -2.336   1.544  1.00  0.00    -0.333 OA
HETATM   24  C18 UNL     1       8.216  -2.838   1.591  1.00  0.00     0.120 C 
HETATM   25  C19 UNL     1       8.972  -2.249   2.784  1.00  0.00     0.062 C 
HETATM   26  C21 UNL     1       8.934  -2.690   0.247  1.00  0.00     0.032 C 
HETATM   27  C20 UNL     1       8.508  -0.826   3.066  1.00  0.00     0.147 C 
HETATM   28  O11 UNL     1       7.990  -0.297   1.879  1.00  0.00    -0.331 OA
ENDBRANCH  21  22
ENDBRANCH   1  21
BRANCH   2  29
HETATM   29  C3  UNL     1       4.210  -2.699   0.346  1.00  0.00     0.294 C 
HETATM   30  O1  UNL     1       4.034  -2.583   1.553  1.00  0.00    -0.259 OA
BRANCH  29  31
HETATM   31  O2  UNL     1       4.489  -3.925  -0.188  1.00  0.00    -0.296 OA
HETATM   32  C4  UNL     1       4.771  -4.011  -1.566  1.00  0.00     0.185 C 
ENDBRANCH  29  31
ENDBRANCH   2  29
TORSDOF 8
