REMARK  14 active torsions:
REMARK  status: ('A' for Active; 'I' for Inactive)
REMARK    1  A    between atoms: C4_5  and  O2_7 
REMARK    2  A    between atoms: O2_7  and  C6_8 
REMARK    3  A    between atoms: C6_8  and  C7_9 
REMARK    4  A    between atoms: C11_14  and  O5_16 
REMARK    5  A    between atoms: O5_16  and  C12_17 
REMARK    6  A    between atoms: C13_18  and  C21_31 
REMARK    7  A    between atoms: C14_19  and  C19_27 
REMARK    8  A    between atoms: C15_20  and  C16_21 
REMARK    9  A    between atoms: C16_21  and  O7_23 
REMARK   10  A    between atoms: C19_27  and  C20_28 
REMARK   11  A    between atoms: C24_38  and  O15_42 
REMARK   12  A    between atoms: C25_39  and  C26_40 
REMARK   13  A    between atoms: O15_42  and  C28_43 
REMARK   14  A    between atoms: C29_45  and  C33_52 
ROOT
HETATM    1  C6  UNL     1       3.738   3.005  -2.330  1.00  0.00     0.177 C 
ENDROOT
BRANCH   1   2
HETATM    2  O2  UNL     1       4.118   1.685  -2.650  1.00  0.00    -0.328 OA
BRANCH   2   3
HETATM    3  C4  UNL     1       4.123   1.416  -4.039  1.00  0.00     0.243 C 
HETATM    4  O1  UNL     1       5.219   2.123  -4.578  1.00  0.00    -0.273 OA
HETATM    5  C3  UNL     1       6.418   1.499  -4.759  1.00  0.00     0.296 C 
HETATM    6  C2  UNL     1       6.654   0.078  -4.410  1.00  0.00     0.066 C 
HETATM    7  O13 UNL     1       7.355   2.143  -5.230  1.00  0.00    -0.259 OA
HETATM    8  C1  UNL     1       5.531  -0.666  -3.754  1.00  0.00     0.044 C 
HETATM    9  C23 UNL     1       7.822  -0.528  -4.712  1.00  0.00     0.120 C 
HETATM   10  C5  UNL     1       4.211  -0.086  -4.273  1.00  0.00     0.067 C 
HETATM   11  C25 UNL     1       5.724  -2.172  -3.994  1.00  0.00     0.083 C 
HETATM   12  C24 UNL     1       7.161  -2.558  -3.663  1.00  0.00     0.246 C 
HETATM   13  O14 UNL     1       8.098  -1.835  -4.434  1.00  0.00    -0.303 OA
BRANCH  11  14
HETATM   14  C26 UNL     1       5.382  -2.573  -5.412  1.00  0.00    -0.021 C 
HETATM   15  C27 UNL     1       4.332  -3.338  -5.745  1.00  0.00    -0.005 C 
ENDBRANCH  11  14
BRANCH  12  16
HETATM   16  O15 UNL     1       7.452  -2.212  -2.326  1.00  0.00    -0.303 OA
BRANCH  16  17
HETATM   17  C28 UNL     1       8.677  -2.722  -1.839  1.00  0.00     0.272 C 
HETATM   18  O16 UNL     1       8.325  -3.768  -0.961  1.00  0.00    -0.326 OA
HETATM   19  C29 UNL     1       9.443  -4.331  -0.323  1.00  0.00     0.184 C 
HETATM   20  C30 UNL     1      10.153  -3.266   0.506  1.00  0.00     0.215 C 
HETATM   21  C31 UNL     1      10.584  -2.123  -0.388  1.00  0.00     0.220 C 
HETATM   22  O19 UNL     1      11.306  -3.783   1.124  1.00  0.00    -0.218 OA
HETATM   23  C32 UNL     1       9.361  -1.596  -1.101  1.00  0.00     0.241 C 
HETATM   24  O18 UNL     1      11.155  -1.104   0.392  1.00  0.00    -0.218 OA
HETATM   25  O17 UNL     1       9.751  -0.616  -2.032  1.00  0.00    -0.215 OA
BRANCH  19  26
HETATM   26  C33 UNL     1       8.976  -5.496   0.539  1.00  0.00     0.214 C 
HETATM   27  O20 UNL     1       8.486  -6.535  -0.286  1.00  0.00    -0.218 OA
ENDBRANCH  19  26
ENDBRANCH  16  17
ENDBRANCH  12  16
ENDBRANCH   2   3
ENDBRANCH   1   2
BRANCH   1  28
HETATM   28  C7  UNL     1       3.868   3.218  -0.824  1.00  0.00     0.180 C 
HETATM   29  C8  UNL     1       3.963   4.696  -0.463  1.00  0.00     0.215 C 
HETATM   30  O3  UNL     1       5.114   5.282  -1.020  1.00  0.00    -0.218 OA
HETATM   31  C9  UNL     1       4.064   4.851   1.040  1.00  0.00     0.220 C 
HETATM   32  C10 UNL     1       2.876   4.163   1.667  1.00  0.00     0.241 C 
HETATM   33  O12 UNL     1       4.056   6.216   1.369  1.00  0.00    -0.218 OA
HETATM   34  C11 UNL     1       2.827   2.721   1.217  1.00  0.00     0.272 C 
HETATM   35  O11 UNL     1       3.006   4.215   3.066  1.00  0.00    -0.215 OA
HETATM   36  O4  UNL     1       2.753   2.645  -0.191  1.00  0.00    -0.326 OA
BRANCH  34  37
HETATM   37  O5  UNL     1       1.625   2.182   1.719  1.00  0.00    -0.303 OA
BRANCH  37  38
HETATM   38  C12 UNL     1       1.476   0.786   1.541  1.00  0.00     0.246 C 
HETATM   39  C13 UNL     1       1.434   0.071   2.882  1.00  0.00     0.084 C 
HETATM   40  C14 UNL     1       0.304   0.648   3.760  1.00  0.00     0.049 C 
HETATM   41  C15 UNL     1      -0.937   0.800   2.908  1.00  0.00     0.066 C 
HETATM   42  C18 UNL     1      -0.884   0.751   1.564  1.00  0.00     0.120 C 
HETATM   43  O8  UNL     1       0.265   0.642   0.833  1.00  0.00    -0.303 OA
BRANCH  39  44
HETATM   44  C21 UNL     1       1.298  -1.419   2.656  1.00  0.00    -0.021 C 
HETATM   45  C22 UNL     1       2.297  -2.296   2.824  1.00  0.00    -0.005 C 
ENDBRANCH  39  44
BRANCH  40  46
HETATM   46  C19 UNL     1       0.055  -0.185   5.036  1.00  0.00     0.103 C 
BRANCH  46  47
HETATM   47  C20 UNL     1       1.229  -0.212   5.997  1.00  0.00     0.186 C 
HETATM   48  O9  UNL     1       1.026  -1.080   7.005  1.00  0.00    -0.647 OA
HETATM   49  O10 UNL     1       2.234   0.456   5.930  1.00  0.00    -0.647 OA
ENDBRANCH  46  47
ENDBRANCH  40  46
BRANCH  41  50
HETATM   50  C16 UNL     1      -2.305   0.953   3.528  1.00  0.00     0.294 C 
HETATM   51  O6  UNL     1      -3.124   0.094   3.217  1.00  0.00    -0.259 OA
BRANCH  50  52
HETATM   52  O7  UNL     1      -2.670   1.924   4.417  1.00  0.00    -0.296 OA
HETATM   53  C17 UNL     1      -1.762   2.961   4.701  1.00  0.00     0.185 C 
ENDBRANCH  50  52
ENDBRANCH  41  50
ENDBRANCH  37  38
ENDBRANCH  34  37
ENDBRANCH   1  28
TORSDOF 14
