REMARK  3 active torsions:
REMARK  status: ('A' for Active; 'I' for Inactive)
REMARK    1  A    between atoms: C3_3  and  C7_8 
REMARK    2  A    between atoms: C7_8  and  C8_9 
REMARK    3  A    between atoms: C8_9  and  N1_10 
ROOT
HETATM    1  C1  UNL     1       1.035   2.562  -0.819  1.00  0.00     0.156 A 
HETATM    2  C2  UNL     1       1.361   1.262  -0.421  1.00  0.00     0.030 A 
HETATM    3  C3  UNL     1       0.428   0.218  -0.416  1.00  0.00     0.038 A 
HETATM    4  C4  UNL     1      -0.867   0.513  -0.851  1.00  0.00     0.003 A 
HETATM    5  C5  UNL     1      -1.208   1.807  -1.247  1.00  0.00     0.029 A 
HETATM    6  C6  UNL     1      -0.275   2.846  -1.219  1.00  0.00     0.156 A 
HETATM    7  O1  UNL     1      -0.598   4.103  -1.622  1.00  0.00    -0.188 OA
HETATM    8  O4  UNL     1       1.955   3.561  -0.786  1.00  0.00    -0.188 OA
ENDROOT
BRANCH   3   9
HETATM    9  C7  UNL     1       0.859  -1.162   0.034  1.00  0.00     0.303 C 
HETATM   10  O2  UNL     1       1.622  -1.052   1.228  1.00  0.00    -0.185 OA
HETATM   11  O3  UNL     1       1.848  -1.681  -0.841  1.00  0.00    -0.185 OA
BRANCH   9  12
HETATM   12  C8  UNL     1      -0.222  -2.203   0.262  1.00  0.00     0.356 C 
BRANCH  12  13
HETATM   13  N1  UNL     1      -1.072  -1.777   1.374  1.00  0.00     0.347 N 
HETATM   14  C9  UNL     1      -2.149  -2.716   1.676  1.00  0.00     0.328 C 
ENDBRANCH  12  13
ENDBRANCH   9  12
ENDBRANCH   3   9
TORSDOF 3
