REMARK  15 active torsions:
REMARK  status: ('A' for Active; 'I' for Inactive)
REMARK    1  A    between atoms: O1_1  and  C1_2 
REMARK    2  A    between atoms: O1_1  and  C35_43 
REMARK    3  A    between atoms: C6_7  and  C8_9 
REMARK    4  A    between atoms: C19_21  and  C29_34 
REMARK    5  A    between atoms: C23_25  and  O4_28 
REMARK    6  A    between atoms: O4_28  and  C25_29 
REMARK    7  A    between atoms: C29_34  and  O6_35 
REMARK    8  A    between atoms: O6_35  and  C30_36 
REMARK    9  A    between atoms: C36_45  and  C52_74 
REMARK   10  A    between atoms: C37_46  and  O17_62 
REMARK   11  A    between atoms: C39_48  and  O10_49 
REMARK   12  A    between atoms: O10_49  and  C40_50 
REMARK   13  A    between atoms: C41_52  and  C45_59 
REMARK   14  A    between atoms: O17_62  and  C46_63 
REMARK   15  A    between atoms: C47_65  and  C51_72 
ROOT
HETATM    1  C1  UNL     1       6.956  -0.107  -0.651  1.00  0.00     0.120 C 
HETATM    2  C2  UNL     1       7.521   1.314  -0.715  1.00  0.00     0.030 C 
HETATM    3  C3  UNL     1       8.942   1.428  -0.147  1.00  0.00     0.003 C 
HETATM    4  C4  UNL     1       9.829   0.166  -0.351  1.00  0.00     0.001 C 
HETATM    5  C5  UNL     1       9.290  -0.596  -1.599  1.00  0.00     0.005 C 
HETATM    6  C6  UNL     1       7.776  -1.042  -1.600  1.00  0.00     0.056 C 
HETATM    7  C7  UNL     1       7.245  -0.900  -3.053  1.00  0.00     0.005 C 
HETATM    8  C9  UNL     1      10.303  -1.678  -2.026  1.00  0.00     0.000 C 
HETATM    9  C10 UNL     1      11.690  -1.107  -2.334  1.00  0.00     0.000 C 
HETATM   10  C11 UNL     1      12.361  -0.342  -1.169  1.00  0.00     0.004 C 
HETATM   11  C12 UNL     1      11.306   0.662  -0.619  1.00  0.00     0.005 C 
HETATM   12  C13 UNL     1      11.904   1.490   0.531  1.00  0.00     0.025 C 
HETATM   13  C14 UNL     1      13.339   1.879   0.329  1.00  0.00    -0.035 C 
HETATM   14  C15 UNL     1      14.171   1.392  -0.609  1.00  0.00    -0.049 C 
HETATM   15  C16 UNL     1      13.677   0.410  -1.671  1.00  0.00     0.017 C 
HETATM   16  C17 UNL     1      14.808  -0.602  -1.997  1.00  0.00     0.037 C 
HETATM   17  C18 UNL     1      16.251  -0.096  -2.015  1.00  0.00     0.158 C 
HETATM   18  C19 UNL     1      16.662   0.793  -0.820  1.00  0.00     0.090 C 
HETATM   19  C20 UNL     1      15.609   1.906  -0.625  1.00  0.00     0.025 C 
HETATM   20  C21 UNL     1      15.814   3.154  -1.496  1.00  0.00     0.007 C 
HETATM   21  C22 UNL     1      17.233   3.752  -1.409  1.00  0.00     0.029 C 
HETATM   22  C23 UNL     1      18.248   2.662  -1.809  1.00  0.00     0.154 C 
HETATM   23  C24 UNL     1      18.093   1.365  -1.009  1.00  0.00     0.185 C 
HETATM   24  O3  UNL     1      18.878   0.355  -1.605  1.00  0.00    -0.221 OA
HETATM   25  C27 UNL     1      17.310   4.933  -2.409  1.00  0.00     0.003 C 
HETATM   26  C28 UNL     1      17.519   4.319  -0.002  1.00  0.00     0.003 C 
HETATM   27  O8  UNL     1      16.544   0.534  -3.236  1.00  0.00    -0.223 OA
HETATM   28  C32 UNL     1      13.423   1.225  -2.967  1.00  0.00     0.004 C 
HETATM   29  C33 UNL     1      12.732  -1.356  -0.057  1.00  0.00     0.000 C 
HETATM   30  C34 UNL     1       9.696  -0.708   0.925  1.00  0.00     0.000 C 
ENDROOT
BRANCH   1  31
HETATM   31  O1  UNL     1       5.577   0.006  -0.906  1.00  0.00    -0.332 OA
BRANCH  31  32
HETATM   32  C35 UNL     1       4.765  -1.049  -0.421  1.00  0.00     0.267 C 
HETATM   33  O9  UNL     1       4.165  -1.498  -1.616  1.00  0.00    -0.318 OA
HETATM   34  C36 UNL     1       3.377  -2.642  -1.434  1.00  0.00     0.234 C 
HETATM   35  C37 UNL     1       2.220  -2.329  -0.489  1.00  0.00     0.189 C 
HETATM   36  C38 UNL     1       2.750  -1.773   0.827  1.00  0.00     0.214 C 
HETATM   37  C39 UNL     1       3.717  -0.609   0.586  1.00  0.00     0.207 C 
HETATM   38  O16 UNL     1       1.686  -1.325   1.638  1.00  0.00    -0.218 OA
BRANCH  34  39
HETATM   39  C52 UNL     1       2.890  -3.149  -2.792  1.00  0.00     0.216 C 
HETATM   40  O23 UNL     1       3.923  -3.515  -3.574  1.00  0.00    -0.646 OA
HETATM   41  O24 UNL     1       1.744  -3.246  -3.164  1.00  0.00    -0.646 OA
ENDBRANCH  34  39
BRANCH  35  42
HETATM   42  O17 UNL     1       1.569  -3.552  -0.311  1.00  0.00    -0.326 OA
BRANCH  42  43
HETATM   43  C46 UNL     1       0.244  -3.487   0.160  1.00  0.00     0.270 C 
HETATM   44  O18 UNL     1       0.358  -3.953   1.486  1.00  0.00    -0.326 OA
HETATM   45  C47 UNL     1      -0.879  -4.112   2.124  1.00  0.00     0.184 C 
HETATM   46  C48 UNL     1      -1.754  -5.088   1.345  1.00  0.00     0.215 C 
HETATM   47  C49 UNL     1      -1.943  -4.595  -0.074  1.00  0.00     0.220 C 
HETATM   48  O21 UNL     1      -3.024  -5.213   1.933  1.00  0.00    -0.218 OA
HETATM   49  C50 UNL     1      -0.574  -4.431  -0.691  1.00  0.00     0.241 C 
HETATM   50  O20 UNL     1      -2.682  -5.539  -0.806  1.00  0.00    -0.218 OA
HETATM   51  O19 UNL     1      -0.707  -3.896  -1.985  1.00  0.00    -0.215 OA
BRANCH  45  52
HETATM   52  C51 UNL     1      -0.609  -4.612   3.535  1.00  0.00     0.214 C 
HETATM   53  O22 UNL     1       0.207  -3.679   4.216  1.00  0.00    -0.218 OA
ENDBRANCH  45  52
ENDBRANCH  42  43
ENDBRANCH  35  42
BRANCH  37  54
HETATM   54  O10 UNL     1       4.313  -0.342   1.829  1.00  0.00    -0.324 OA
BRANCH  54  55
HETATM   55  C40 UNL     1       4.719   0.993   2.037  1.00  0.00     0.270 C 
HETATM   56  O11 UNL     1       5.978   0.856   2.667  1.00  0.00    -0.326 OA
HETATM   57  C41 UNL     1       6.569   2.086   2.999  1.00  0.00     0.184 C 
HETATM   58  C42 UNL     1       5.645   2.894   3.905  1.00  0.00     0.215 C 
HETATM   59  C43 UNL     1       4.277   3.051   3.272  1.00  0.00     0.220 C 
HETATM   60  O14 UNL     1       6.152   4.184   4.143  1.00  0.00    -0.218 OA
HETATM   61  C44 UNL     1       3.740   1.671   2.966  1.00  0.00     0.241 C 
HETATM   62  O13 UNL     1       3.421   3.711   4.168  1.00  0.00    -0.218 OA
HETATM   63  O12 UNL     1       2.482   1.775   2.349  1.00  0.00    -0.215 OA
BRANCH  57  64
HETATM   64  C45 UNL     1       7.914   1.787   3.654  1.00  0.00     0.214 C 
HETATM   65  O15 UNL     1       8.782   2.896   3.537  1.00  0.00    -0.218 OA
ENDBRANCH  57  64
ENDBRANCH  54  55
ENDBRANCH  37  54
ENDBRANCH  31  32
ENDBRANCH   1  31
BRANCH   6  66
HETATM   66  C8  UNL     1       7.576  -2.521  -1.194  1.00  0.00     0.184 C 
HETATM   67  O2  UNL     1       8.153  -3.453  -2.086  1.00  0.00    -0.221 OA
ENDBRANCH   6  66
BRANCH  18  68
HETATM   68  C29 UNL     1      16.672  -0.108   0.449  1.00  0.00     0.157 C 
BRANCH  68  69
HETATM   69  O6  UNL     1      17.089   0.612   1.584  1.00  0.00    -0.302 OA
BRANCH  69  70
HETATM   70  C30 UNL     1      16.495   0.355   2.780  1.00  0.00     0.272 C 
HETATM   71  C31 UNL     1      16.989   1.341   3.821  1.00  0.00     0.106 C 
HETATM   72  O7  UNL     1      15.673  -0.508   2.989  1.00  0.00    -0.264 OA
ENDBRANCH  69  70
ENDBRANCH  68  69
ENDBRANCH  18  68
BRANCH  22  73
HETATM   73  O4  UNL     1      19.533   3.201  -1.648  1.00  0.00    -0.302 OA
BRANCH  73  74
HETATM   74  C25 UNL     1      20.565   2.687  -2.365  1.00  0.00     0.272 C 
HETATM   75  C26 UNL     1      21.826   3.493  -2.132  1.00  0.00     0.106 C 
HETATM   76  O5  UNL     1      20.489   1.713  -3.077  1.00  0.00    -0.264 OA
ENDBRANCH  73  74
ENDBRANCH  22  73
TORSDOF 15
