REMARK  1 active torsions:
REMARK  status: ('A' for Active; 'I' for Inactive)
REMARK    1  A    between atoms: C8_10  and  O7_23 
ROOT
HETATM    1  C1  UNL     1      -2.452  -0.147   1.795  1.00  0.00     0.145 C 
HETATM    2  O1  UNL     1      -3.070  -1.057   0.923  1.00  0.00    -0.331 OA
HETATM    3  C2  UNL     1      -2.292  -1.093  -0.250  1.00  0.00     0.244 A 
HETATM    4  C3  UNL     1      -1.529   0.245  -0.349  1.00  0.00     0.086 A 
HETATM    5  C4  UNL     1      -1.982   0.995   0.905  1.00  0.00     0.042 C 
HETATM    6  C5  UNL     1      -0.104  -0.234  -0.307  1.00  0.00     0.028 A 
HETATM    7  C6  UNL     1      -0.071  -1.616  -0.240  1.00  0.00     0.097 A 
HETATM    8  O2  UNL     1      -1.335  -2.155  -0.216  1.00  0.00    -0.306 OA
HETATM    9  C7  UNL     1       1.143  -2.294  -0.210  1.00  0.00     0.048 C 
HETATM   10  C8  UNL     1       2.344  -1.582  -0.302  1.00  0.00     0.098 C 
HETATM   11  C9  UNL     1       2.303  -0.158  -0.242  1.00  0.00     0.042 C 
HETATM   12  C10 UNL     1       1.065   0.529  -0.320  1.00  0.00     0.103 C 
HETATM   13  O3  UNL     1       0.932   1.884  -0.385  1.00  0.00    -0.273 OA
HETATM   14  C11 UNL     1       2.059   2.609  -0.596  1.00  0.00     0.305 C 
HETATM   15  C12 UNL     1       3.410   2.015  -0.429  1.00  0.00     0.123 C 
HETATM   16  C13 UNL     1       3.517   0.682  -0.187  1.00  0.00    -0.005 C 
HETATM   17  C14 UNL     1       4.913   0.163   0.070  1.00  0.00     0.060 C 
HETATM   18  C15 UNL     1       5.832   1.202   0.707  1.00  0.00     0.157 C 
HETATM   19  O4  UNL     1       5.847   2.415   0.011  1.00  0.00    -0.298 OA
HETATM   20  C16 UNL     1       4.655   2.837  -0.490  1.00  0.00     0.301 C 
HETATM   21  O5  UNL     1       4.610   3.927  -1.052  1.00  0.00    -0.259 OA
HETATM   22  O6  UNL     1       1.945   3.801  -0.864  1.00  0.00    -0.259 OA
ENDROOT
BRANCH  10  23
HETATM   23  O7  UNL     1       3.505  -2.307  -0.261  1.00  0.00    -0.328 OA
HETATM   24  C17 UNL     1       3.858  -2.897  -1.491  1.00  0.00     0.181 C 
ENDBRANCH  10  23
TORSDOF 1
