REMARK  5 active torsions:
REMARK  status: ('A' for Active; 'I' for Inactive)
REMARK    1  A    between atoms: C7_7  and  C12_12 
REMARK    2  A    between atoms: C12_12  and  C13_13 
REMARK    3  A    between atoms: C13_13  and  C14_14 
REMARK    4  A    between atoms: C14_14  and  C15_15 
REMARK    5  A    between atoms: C15_15  and  C16_16 
ROOT
HETATM    1  C1  UNL     1       4.060   1.271   0.553  1.00  0.00     0.022 C 
HETATM    2  C2  UNL     1       3.732   2.637   1.091  1.00  0.00    -0.045 C 
HETATM    3  C3  UNL     1       2.594   3.353   0.370  1.00  0.00     0.015 C 
HETATM    4  C4  UNL     1       1.386   2.368   0.247  1.00  0.00     0.007 C 
HETATM    5  C5  UNL     1       1.610   0.874  -0.175  1.00  0.00     0.019 C 
HETATM    6  C6  UNL     1       2.820   0.376   0.648  1.00  0.00     0.008 C 
HETATM    7  C7  UNL     1       0.303   0.079   0.072  1.00  0.00    -0.035 C 
HETATM    8  C8  UNL     1      -0.895   0.715   0.031  1.00  0.00    -0.048 C 
HETATM    9  C9  UNL     1      -1.066   2.207  -0.132  1.00  0.00     0.022 C 
HETATM   10  C10 UNL     1       0.205   2.944  -0.544  1.00  0.00     0.005 C 
HETATM   11  C11 UNL     1      -2.252   0.042   0.171  1.00  0.00     0.026 C 
HETATM   12  C18 UNL     1       1.891   0.651  -1.680  1.00  0.00     0.004 C 
HETATM   13  C19 UNL     1       2.163   4.611   1.176  1.00  0.00     0.004 C 
HETATM   14  C20 UNL     1       3.105   3.885  -0.985  1.00  0.00     0.004 C 
HETATM   15  C21 UNL     1       4.433   3.127   2.129  1.00  0.00    -0.009 C 
ENDROOT
BRANCH   7  16
HETATM   16  C12 UNL     1       0.243  -1.447   0.135  1.00  0.00    -0.028 C 
BRANCH  16  17
HETATM   17  C13 UNL     1       1.447  -2.384   0.311  1.00  0.00     0.059 C 
BRANCH  17  18
HETATM   18  C14 UNL     1       1.150  -3.902   0.324  1.00  0.00     0.160 C 
HETATM   19  O2  UNL     1       2.182  -4.478   1.099  1.00  0.00    -0.223 OA
HETATM   20  C17 UNL     1      -0.145  -4.250   1.066  1.00  0.00     0.036 C 
BRANCH  18  21
HETATM   21  C15 UNL     1       1.273  -4.561  -1.062  1.00  0.00     0.196 C 
HETATM   22  O1  UNL     1       0.851  -5.907  -1.009  1.00  0.00    -0.219 OA
BRANCH  21  23
HETATM   23  C16 UNL     1       0.604  -3.927  -2.275  1.00  0.00     0.130 C 
HETATM   24 CL1  UNL     1      -1.170  -4.076  -2.224  1.00  0.00    -0.111 Cl
ENDBRANCH  21  23
ENDBRANCH  18  21
ENDBRANCH  17  18
ENDBRANCH  16  17
ENDBRANCH   7  16
TORSDOF 5
