REMARK  1 active torsions:
REMARK  status: ('A' for Active; 'I' for Inactive)
REMARK    1  A    between atoms: C10_12  and  C13_15 
ROOT
HETATM    1  C1  UNL     1      -2.056  -0.465   2.430  1.00  0.00     0.272 C 
HETATM    2  O1  UNL     1      -2.321  -1.624   1.776  1.00  0.00    -0.307 OA
HETATM    3  C2  UNL     1      -1.460  -2.301   0.910  1.00  0.00     0.101 C 
HETATM    4  C3  UNL     1      -0.125  -1.577   0.642  1.00  0.00     0.026 C 
HETATM    5  C4  UNL     1      -0.199  -0.035   0.705  1.00  0.00     0.014 C 
HETATM    6  C5  UNL     1      -0.742   0.223   2.124  1.00  0.00     0.096 C 
HETATM    7  C6  UNL     1       1.240   0.544   0.556  1.00  0.00     0.026 C 
HETATM    8  C7  UNL     1       2.056   0.088  -0.672  1.00  0.00     0.093 C 
HETATM    9  C8  UNL     1       2.047  -1.454  -0.689  1.00  0.00     0.027 C 
HETATM   10  C9  UNL     1       0.637  -2.062  -0.604  1.00  0.00     0.005 C 
HETATM   11  O2  UNL     1       3.404   0.450  -0.503  1.00  0.00    -0.360 OA
HETATM   12  C10 UNL     1       3.700   1.813  -0.297  1.00  0.00     0.111 C 
HETATM   13  C11 UNL     1       2.882   2.378   0.872  1.00  0.00     0.032 C 
HETATM   14  C12 UNL     1       1.388   2.063   0.741  1.00  0.00     0.005 C 
HETATM   15  C15 UNL     1       5.188   1.878   0.096  1.00  0.00     0.034 C 
HETATM   16  C16 UNL     1       1.563   0.571  -2.046  1.00  0.00     0.030 C 
HETATM   17  C17 UNL     1      -1.196   0.603  -0.283  1.00  0.00     0.001 C 
HETATM   18  C18 UNL     1      -1.184  -3.667   1.577  1.00  0.00     0.030 C 
HETATM   19  C19 UNL     1      -2.255  -2.600  -0.373  1.00  0.00     0.030 C 
HETATM   20  O3  UNL     1      -2.840   0.019   3.221  1.00  0.00    -0.264 OA
ENDROOT
BRANCH  12  21
HETATM   21  C13 UNL     1       3.537   2.659  -1.548  1.00  0.00     0.000 C 
HETATM   22  C14 UNL     1       4.157   2.420  -2.713  1.00  0.00    -0.003 C 
ENDBRANCH  12  21
TORSDOF 1
