REMARK  4 active torsions:
REMARK  status: ('A' for Active; 'I' for Inactive)
REMARK    1  A    between atoms: C19_20  and  C20_22 
REMARK    2  A    between atoms: C23_25  and  O3_26 
REMARK    3  A    between atoms: O3_26  and  C24_27 
REMARK    4  A    between atoms: C25_29  and  C29_36 
ROOT
HETATM    1  O1  UNL     1      -3.166  -3.216  -3.172  1.00  0.00    -0.224 OA
HETATM    2  C1  UNL     1      -2.299  -4.325  -3.228  1.00  0.00     0.152 C 
HETATM    3  C2  UNL     1      -1.372  -4.174  -4.429  1.00  0.00     0.033 C 
HETATM    4  C3  UNL     1      -0.367  -3.021  -4.260  1.00  0.00     0.003 C 
HETATM    5  C4  UNL     1       0.298  -2.915  -2.857  1.00  0.00     0.000 C 
HETATM    6  C5  UNL     1      -0.016  -4.215  -2.072  1.00  0.00     0.003 C 
HETATM    7  C6  UNL     1      -1.527  -4.465  -1.914  1.00  0.00     0.033 C 
HETATM    8  C7  UNL     1       0.709  -4.295  -0.718  1.00  0.00     0.000 C 
HETATM    9  C8  UNL     1       2.226  -4.135  -0.886  1.00  0.00     0.000 C 
HETATM   10  C9  UNL     1       2.577  -2.830  -1.625  1.00  0.00     0.000 C 
HETATM   11  C10 UNL     1       1.847  -2.803  -2.992  1.00  0.00     0.000 C 
HETATM   12  C11 UNL     1       2.333  -1.648  -3.897  1.00  0.00     0.000 C 
HETATM   13  C12 UNL     1       3.158  -0.611  -3.131  1.00  0.00     0.000 C 
HETATM   14  C13 UNL     1       4.399  -1.256  -2.500  1.00  0.00     0.003 C 
HETATM   15  C14 UNL     1       4.092  -2.621  -1.833  1.00  0.00     0.003 C 
HETATM   16  C15 UNL     1       4.965  -2.623  -0.565  1.00  0.00     0.030 C 
HETATM   17  C16 UNL     1       5.120  -1.162  -0.174  1.00  0.00     0.118 C 
HETATM   18  C17 UNL     1       5.189  -0.393  -1.485  1.00  0.00     0.032 C 
HETATM   19  C18 UNL     1       4.649   0.981  -1.055  1.00  0.00     0.059 C 
HETATM   20  C19 UNL     1       3.894   0.684   0.240  1.00  0.00     0.244 C 
HETATM   21  O2  UNL     1       3.979  -0.694   0.476  1.00  0.00    -0.333 OA
HETATM   22  O10 UNL     1       4.534   1.244   1.367  1.00  0.00    -0.193 OA
HETATM   23  C31 UNL     1       5.793   2.000  -0.901  1.00  0.00     0.005 C 
HETATM   24  C32 UNL     1      -0.263  -1.668  -2.131  1.00  0.00     0.000 C 
ENDROOT
BRANCH  20  25
HETATM   25  C20 UNL     1       2.440   1.106   0.273  1.00  0.00     0.172 C 
HETATM   26  C21 UNL     1       2.189   2.574  -0.052  1.00  0.00     0.040 C 
HETATM   27  C22 UNL     1       1.076   2.985   0.924  1.00  0.00     0.059 C 
HETATM   28  C23 UNL     1       0.753   1.687   1.651  1.00  0.00     0.237 C 
HETATM   29  C30 UNL     1      -0.124   3.607   0.196  1.00  0.00     0.005 C 
HETATM   30  O9  UNL     1       1.915   0.891   1.550  1.00  0.00    -0.328 OA
BRANCH  28  31
HETATM   31  O3  UNL     1       0.584   1.800   3.048  1.00  0.00    -0.304 OA
BRANCH  31  32
HETATM   32  C24 UNL     1      -0.561   2.530   3.432  1.00  0.00     0.272 C 
HETATM   33  O4  UNL     1      -0.125   3.866   3.553  1.00  0.00    -0.326 OA
HETATM   34  C25 UNL     1      -1.149   4.747   3.925  1.00  0.00     0.184 C 
HETATM   35  C26 UNL     1      -1.699   4.343   5.287  1.00  0.00     0.215 C 
HETATM   36  C27 UNL     1      -2.174   2.905   5.249  1.00  0.00     0.220 C 
HETATM   37  O7  UNL     1      -2.791   5.152   5.650  1.00  0.00    -0.218 OA
HETATM   38  C28 UNL     1      -1.032   2.031   4.779  1.00  0.00     0.241 C 
HETATM   39  O6  UNL     1      -2.578   2.509   6.534  1.00  0.00    -0.218 OA
HETATM   40  O5  UNL     1      -1.489   0.708   4.656  1.00  0.00    -0.215 OA
BRANCH  34  41
HETATM   41  C29 UNL     1      -0.573   6.156   3.939  1.00  0.00     0.214 C 
HETATM   42  O8  UNL     1      -0.139   6.505   2.639  1.00  0.00    -0.218 OA
ENDBRANCH  34  41
ENDBRANCH  31  32
ENDBRANCH  28  31
ENDBRANCH  20  25
TORSDOF 4
