REMARK  0 active torsions:
REMARK  status: ('A' for Active; 'I' for Inactive)
ROOT
HETATM    1  O1  UNL     1      -3.479  -2.218  -2.999  1.00  0.00    -0.221 OA
HETATM    2  C1  UNL     1      -2.354  -2.818  -3.600  1.00  0.00     0.182 C 
HETATM    3  C2  UNL     1      -1.557  -1.746  -4.319  1.00  0.00     0.182 C 
HETATM    4  C3  UNL     1      -0.762  -0.816  -3.395  1.00  0.00     0.036 C 
HETATM    5  C4  UNL     1      -0.203  -1.435  -2.081  1.00  0.00     0.003 C 
HETATM    6  C5  UNL     1      -0.152  -2.969  -2.273  1.00  0.00     0.003 C 
HETATM    7  C6  UNL     1      -1.534  -3.587  -2.561  1.00  0.00     0.036 C 
HETATM    8  C7  UNL     1       0.538  -3.694  -1.109  1.00  0.00     0.000 C 
HETATM    9  C8  UNL     1       1.947  -3.140  -0.860  1.00  0.00     0.000 C 
HETATM   10  C9  UNL     1       1.932  -1.619  -0.598  1.00  0.00     0.000 C 
HETATM   11  C10 UNL     1       1.247  -0.918  -1.799  1.00  0.00     0.003 C 
HETATM   12  C11 UNL     1       1.342   0.617  -1.700  1.00  0.00     0.033 C 
HETATM   13  C12 UNL     1       2.767   1.087  -1.421  1.00  0.00     0.152 C 
HETATM   14  C13 UNL     1       3.350   0.514  -0.111  1.00  0.00     0.031 C 
HETATM   15  C14 UNL     1       3.341  -1.036  -0.293  1.00  0.00     0.003 C 
HETATM   16  C15 UNL     1       4.033  -1.715   0.906  1.00  0.00     0.003 C 
HETATM   17  C16 UNL     1       5.498  -1.286   1.013  1.00  0.00     0.030 C 
HETATM   18  C17 UNL     1       5.687   0.221   1.024  1.00  0.00     0.118 C 
HETATM   19  C18 UNL     1       4.822   1.016   0.050  1.00  0.00     0.034 C 
HETATM   20  C19 UNL     1       5.032   2.426   0.659  1.00  0.00     0.054 C 
HETATM   21  C20 UNL     1       5.486   2.173   2.109  1.00  0.00     0.187 C 
HETATM   22  O2  UNL     1       5.428   0.778   2.275  1.00  0.00    -0.337 OA
HETATM   23  O3  UNL     1       6.826   2.574   2.286  1.00  0.00    -0.335 OA
HETATM   24  C21 UNL     1       7.353   2.338   3.570  1.00  0.00     0.145 C 
HETATM   25  C22 UNL     1       6.556   3.055   4.659  1.00  0.00     0.030 C 
HETATM   26  C23 UNL     1       5.085   2.632   4.562  1.00  0.00     0.007 C 
HETATM   27  C24 UNL     1       4.604   2.882   3.130  1.00  0.00     0.056 C 
HETATM   28  C25 UNL     1       7.121   2.759   6.057  1.00  0.00     0.003 C 
HETATM   29  C26 UNL     1       6.019   3.259  -0.181  1.00  0.00     0.005 C 
HETATM   30  C27 UNL     1       2.453   0.923   1.083  1.00  0.00     0.003 C 
HETATM   31  O4  UNL     1       2.776   2.495  -1.411  1.00  0.00    -0.224 OA
HETATM   32  C28 UNL     1      -1.140  -1.057  -0.905  1.00  0.00     0.000 C 
HETATM   33  O5  UNL     1      -0.688  -2.366  -5.240  1.00  0.00    -0.221 OA
ENDROOT
TORSDOF 0
