REMARK  2 active torsions:
REMARK  status: ('A' for Active; 'I' for Inactive)
REMARK    1  A    between atoms: C1_1  and  O3_24 
REMARK    2  A    between atoms: C15_15  and  C18_19 
ROOT
HETATM    1  C1  UNL     1      -0.732  -1.275  -2.802  1.00  0.00     0.146 C 
HETATM    2  C2  UNL     1      -1.509  -2.178  -1.856  1.00  0.00     0.179 C 
HETATM    3  C3  UNL     1      -0.595  -2.900  -0.866  1.00  0.00     0.035 C 
HETATM    4  C4  UNL     1       0.718  -2.139  -0.584  1.00  0.00     0.003 C 
HETATM    5  C5  UNL     1       0.540  -0.600  -0.585  1.00  0.00     0.003 C 
HETATM    6  C6  UNL     1       0.004  -0.189  -1.990  1.00  0.00     0.032 C 
HETATM    7  C7  UNL     1       1.931   0.062  -0.320  1.00  0.00     0.000 C 
HETATM    8  C8  UNL     1       2.617  -0.480   0.961  1.00  0.00     0.000 C 
HETATM    9  C9  UNL     1       2.769  -2.007   0.894  1.00  0.00     0.000 C 
HETATM   10  C10 UNL     1       1.408  -2.680   0.678  1.00  0.00     0.000 C 
HETATM   11  C11 UNL     1       3.975   0.209   1.145  1.00  0.00     0.008 C 
HETATM   12  C12 UNL     1       3.867   1.747   1.258  1.00  0.00     0.007 C 
HETATM   13  C13 UNL     1       3.295   2.248  -0.079  1.00  0.00     0.000 C 
HETATM   14  C14 UNL     1       1.922   1.609  -0.367  1.00  0.00     0.000 C 
HETATM   15  C15 UNL     1       5.347   2.124   1.529  1.00  0.00     0.058 C 
HETATM   16  C16 UNL     1       5.789   1.002   2.466  1.00  0.00     0.150 C 
HETATM   17  C17 UNL     1       4.857  -0.194   2.333  1.00  0.00     0.065 C 
HETATM   18  O1  UNL     1       6.729   1.041   3.224  1.00  0.00    -0.296 OA
HETATM   19  C20 UNL     1       2.989   2.227   2.437  1.00  0.00     0.000 C 
HETATM   20  C21 UNL     1      -0.468  -0.162   0.507  1.00  0.00     0.000 C 
HETATM   21  O2  UNL     1      -2.288  -3.113  -2.562  1.00  0.00    -0.221 OA
ENDROOT
BRANCH   1  22
HETATM   22  O3  UNL     1       0.205  -2.013  -3.548  1.00  0.00    -0.351 OA
HETATM   23  C22 UNL     1      -0.255  -2.404  -4.825  1.00  0.00     0.174 C 
ENDBRANCH   1  22
BRANCH  15  24
HETATM   24  C18 UNL     1       5.603   3.547   2.046  1.00  0.00     0.007 C 
HETATM   25  C19 UNL     1       7.077   3.970   1.979  1.00  0.00     0.000 C 
ENDBRANCH  15  24
TORSDOF 2
