REMARK  10 active torsions:
REMARK  status: ('A' for Active; 'I' for Inactive)
REMARK    1  A    between atoms: S1_2  and  C2_3 
REMARK    2  A    between atoms: C3_4  and  C4_5 
REMARK       I    between atoms: C4_5  and  N1_6 
REMARK    3  A    between atoms: N1_6  and  C5_7 
REMARK    4  A    between atoms: C5_7  and  C6_8 
REMARK    5  A    between atoms: C6_8  and  C7_9 
REMARK    6  A    between atoms: C7_9  and  C8_10 
REMARK    7  A    between atoms: C8_10  and  N2_11 
REMARK    8  A    between atoms: N2_11  and  C9_12 
REMARK    9  A    between atoms: C9_12  and  C10_13 
REMARK   10  A    between atoms: C11_14  and  S2_15 
ROOT
HETATM    1  C6  UNL     1       2.587   0.904  -0.000  1.00  0.00     0.029 C 
ENDROOT
BRANCH   1   2
HETATM    2  C5  UNL     1       1.122   1.365   0.000  1.00  0.00     0.129 C 
BRANCH   2   3
HETATM    3  N1  UNL     1       1.065   2.829   0.000  1.00  0.00    -0.234 NA
HETATM    4  C4  UNL     1      -0.117   3.512   0.000  1.00  0.00     0.276 C 
HETATM    5  O1  UNL     1      -1.209   2.956  -0.000  1.00  0.00    -0.266 OA
BRANCH   4   6
HETATM    6  C3  UNL     1       0.065   4.974   0.000  1.00  0.00     0.069 C 
HETATM    7  C2  UNL     1      -0.993   5.824   0.000  1.00  0.00     0.036 C 
BRANCH   7   8
HETATM    8  S1  UNL     1      -0.772   7.628   0.000  1.00  0.00    -0.112 SA
HETATM    9  C1  UNL     1      -2.528   8.084  -0.000  1.00  0.00     0.074 C 
ENDBRANCH   7   8
ENDBRANCH   4   6
ENDBRANCH   2   3
ENDBRANCH   1   2
BRANCH   1  10
HETATM   10  C7  UNL     1       2.716  -0.628   0.000  1.00  0.00     0.028 C 
BRANCH  10  11
HETATM   11  C8  UNL     1       4.188  -1.067  -0.000  1.00  0.00     0.126 C 
BRANCH  11  12
HETATM   12  N2  UNL     1       4.309  -2.540   0.000  1.00  0.00    -0.271 NA
BRANCH  12  13
HETATM   13  C9  UNL     1       5.528  -3.251   0.000  1.00  0.00     0.077 C 
HETATM   14  C13 UNL     1       6.726  -2.608  -0.000  1.00  0.00     0.020 C 
BRANCH  13  15
HETATM   15  C10 UNL     1       5.393  -4.715   0.000  1.00  0.00     0.025 C 
HETATM   16  C11 UNL     1       6.416  -5.601   0.000  1.00  0.00     0.032 C 
BRANCH  16  17
HETATM   17  S2  UNL     1       6.133  -7.398   0.000  1.00  0.00    -0.112 SA
HETATM   18  C12 UNL     1       7.872  -7.917  -0.000  1.00  0.00     0.074 C 
ENDBRANCH  16  17
ENDBRANCH  13  15
ENDBRANCH  12  13
ENDBRANCH  11  12
ENDBRANCH  10  11
ENDBRANCH   1  10
TORSDOF 10
