REMARK  9 active torsions:
REMARK  status: ('A' for Active; 'I' for Inactive)
REMARK    1  A    between atoms: C4_4  and  C7_7 
REMARK    2  A    between atoms: C7_7  and  C8_8 
REMARK       I    between atoms: C8_8  and  N1_9 
REMARK    3  A    between atoms: N1_9  and  C9_10 
REMARK    4  A    between atoms: C9_10  and  C10_11 
REMARK    5  A    between atoms: C10_11  and  C11_12 
REMARK    6  A    between atoms: C11_12  and  C12_13 
REMARK    7  A    between atoms: C12_13  and  N2_14 
REMARK       I    between atoms: N2_14  and  C13_15 
REMARK    8  A    between atoms: C13_15  and  C14_16 
REMARK    9  A    between atoms: C15_17  and  S1_18 
ROOT
HETATM    1  C9  UNL     1       8.706   0.613  -0.214  1.00  0.00     0.129 C 
ENDROOT
BRANCH   1   2
HETATM    2  N1  UNL     1      10.081   0.438   0.262  1.00  0.00    -0.238 NA
HETATM    3  C8  UNL     1      11.163   0.935  -0.413  1.00  0.00     0.256 C 
HETATM    4  O2  UNL     1      11.070   1.498  -1.478  1.00  0.00    -0.270 OA
BRANCH   3   5
HETATM    5  C7  UNL     1      12.489   0.725   0.299  1.00  0.00     0.116 C 
BRANCH   5   6
HETATM    6  C4  UNL     1      13.528   1.752  -0.086  1.00  0.00    -0.013 A 
HETATM    7  C3  UNL     1      14.765   1.373  -0.622  1.00  0.00    -0.004 A 
HETATM    8  C2  UNL     1      15.720   2.333  -0.968  1.00  0.00    -0.000 A 
HETATM    9  C1  UNL     1      15.446   3.689  -0.786  1.00  0.00    -0.000 A 
HETATM   10  C6  UNL     1      14.218   4.081  -0.251  1.00  0.00    -0.000 A 
HETATM   11  C5  UNL     1      13.272   3.116   0.101  1.00  0.00    -0.004 A 
ENDBRANCH   5   6
ENDBRANCH   3   5
ENDBRANCH   1   2
BRANCH   1  12
HETATM   12  C10 UNL     1       7.837  -0.563   0.258  1.00  0.00     0.029 C 
BRANCH  12  13
HETATM   13  C11 UNL     1       6.356  -0.361  -0.103  1.00  0.00     0.029 C 
BRANCH  13  14
HETATM   14  C12 UNL     1       5.485  -1.540   0.355  1.00  0.00     0.129 C 
BRANCH  14  15
HETATM   15  N2  UNL     1       4.076  -1.254   0.075  1.00  0.00    -0.234 NA
HETATM   16  C13 UNL     1       3.080  -2.140   0.372  1.00  0.00     0.276 C 
HETATM   17  O1  UNL     1       3.292  -3.240   0.869  1.00  0.00    -0.266 OA
BRANCH  16  18
HETATM   18  C14 UNL     1       1.738  -1.623   0.051  1.00  0.00     0.069 C 
HETATM   19  C15 UNL     1       0.613  -2.318   0.354  1.00  0.00     0.036 C 
BRANCH  19  20
HETATM   20  S1  UNL     1      -1.043  -1.666  -0.016  1.00  0.00    -0.112 SA
HETATM   21  C16 UNL     1      -1.982  -3.180   0.328  1.00  0.00     0.074 C 
ENDBRANCH  19  20
ENDBRANCH  16  18
ENDBRANCH  14  15
ENDBRANCH  13  14
ENDBRANCH  12  13
ENDBRANCH   1  12
TORSDOF 9
