REMARK  2 active torsions:
REMARK  status: ('A' for Active; 'I' for Inactive)
REMARK    1  A    between atoms: C1_1  and  C28_30 
REMARK    2  A    between atoms: C4_4  and  C5_6 
ROOT
HETATM    1  C5  UNL     1       1.539   1.305  -0.907  1.00  0.00     0.025 C 
HETATM    2  C6  UNL     1       0.593   0.381  -0.126  1.00  0.00     0.002 C 
HETATM    3  C7  UNL     1       1.290  -0.995   0.013  1.00  0.00     0.000 C 
HETATM    4  C8  UNL     1       2.657  -0.416   0.482  1.00  0.00     0.000 C 
HETATM    5  C9  UNL     1       2.918   0.843  -0.378  1.00  0.00     0.002 C 
HETATM    6  C10 UNL     1       0.479  -1.971   0.979  1.00  0.00     0.000 C 
HETATM    7  C11 UNL     1      -0.810  -1.308   1.587  1.00  0.00     0.000 C 
HETATM    8  C12 UNL     1      -1.599  -0.461   0.545  1.00  0.00     0.000 C 
HETATM    9  C13 UNL     1      -0.824   0.163  -0.623  1.00  0.00     0.000 C 
HETATM   10  C14 UNL     1      -1.785  -2.207   2.450  1.00  0.00     0.001 C 
HETATM   11  C15 UNL     1      -2.078  -3.612   1.826  1.00  0.00     0.006 C 
HETATM   12  C16 UNL     1      -0.843  -4.221   1.139  1.00  0.00     0.000 C 
HETATM   13  C17 UNL     1      -0.058  -3.236   0.261  1.00  0.00     0.000 C 
HETATM   14  C18 UNL     1      -3.427  -3.902   1.093  1.00  0.00     0.051 C 
HETATM   15  C19 UNL     1      -4.564  -3.075   1.691  1.00  0.00     0.150 C 
HETATM   16  C20 UNL     1      -4.293  -2.415   3.027  1.00  0.00     0.065 C 
HETATM   17  C21 UNL     1      -3.110  -1.467   2.813  1.00  0.00     0.008 C 
HETATM   18  O2  UNL     1      -5.643  -2.967   1.151  1.00  0.00    -0.296 OA
HETATM   19  C22 UNL     1      -3.402  -3.704  -0.438  1.00  0.00     0.007 C 
HETATM   20  C23 UNL     1      -3.871  -5.372   1.326  1.00  0.00     0.007 C 
HETATM   21  C24 UNL     1      -1.155  -2.445   3.862  1.00  0.00     0.000 C 
HETATM   22  C25 UNL     1       1.496  -2.437   2.052  1.00  0.00     0.000 C 
HETATM   23  C26 UNL     1       1.608  -1.668  -1.352  1.00  0.00     0.000 C 
ENDROOT
BRANCH   1  24
HETATM   24  C4  UNL     1       1.315   2.831  -0.833  1.00  0.00     0.096 C 
HETATM   25  C3  UNL     1       0.136   3.303  -1.687  1.00  0.00     0.033 C 
HETATM   26  C2  UNL     1       0.553   4.718  -2.086  1.00  0.00     0.064 C 
HETATM   27  C1  UNL     1       2.071   4.647  -2.039  1.00  0.00     0.245 C 
HETATM   28  O1  UNL     1       2.428   3.436  -1.423  1.00  0.00    -0.336 OA
HETATM   29  O4  UNL     1       2.586   5.589  -1.119  1.00  0.00    -0.193 OA
HETATM   30  C27 UNL     1       1.163   3.345   0.607  1.00  0.00     0.030 C 
BRANCH  27  31
HETATM   31  C28 UNL     1       2.791   4.801  -3.375  1.00  0.00     0.176 C 
HETATM   32  C29 UNL     1       4.297   4.536  -3.258  1.00  0.00     0.038 C 
HETATM   33  C30 UNL     1       2.569   6.185  -3.997  1.00  0.00     0.038 C 
HETATM   34  O3  UNL     1       2.267   3.848  -4.264  1.00  0.00    -0.221 OA
ENDBRANCH  27  31
ENDBRANCH   1  24
TORSDOF 2
