REMARK  5 active torsions:
REMARK  status: ('A' for Active; 'I' for Inactive)
REMARK    1  A    between atoms: C15_15  and  C18_18 
REMARK    2  A    between atoms: C18_18  and  C19_19 
REMARK    3  A    between atoms: C19_19  and  C20_20 
REMARK    4  A    between atoms: C20_20  and  C21_21 
REMARK    5  A    between atoms: C21_21  and  C22_22 
ROOT
HETATM    1  C1  UNL     1      -2.361  -2.777  -0.685  1.00  0.00     0.012 C 
HETATM    2  C2  UNL     1      -1.423  -3.016   0.781  1.00  0.00     0.168 C 
HETATM    3  C3  UNL     1      -1.959  -2.526   2.375  1.00  0.00     0.056 C 
HETATM    4  C4  UNL     1      -3.502  -1.552   2.337  1.00  0.00     0.011 C 
HETATM    5  C5  UNL     1      -4.252  -0.915   0.782  1.00  0.00     0.022 C 
HETATM    6  C6  UNL     1      -3.769  -1.691  -0.755  1.00  0.00     0.033 C 
HETATM    7  C7  UNL     1      -3.244   0.091   0.618  1.00  0.00    -0.035 C 
HETATM    8  C8  UNL     1      -2.349  -1.082   0.677  1.00  0.00    -0.049 C 
HETATM    9  C9  UNL     1      -3.508  -2.708   1.038  1.00  0.00     0.022 C 
HETATM   10  C10 UNL     1      -4.426  -2.695   2.291  1.00  0.00     0.005 C 
HETATM   11  C11 UNL     1      -1.188  -0.451  -0.367  1.00  0.00     0.015 C 
HETATM   12  C12 UNL     1      -0.705   1.022   0.181  1.00  0.00     0.007 C 
HETATM   13  C13 UNL     1      -1.857   2.048   0.047  1.00  0.00     0.026 C 
HETATM   14  C14 UNL     1      -3.167   1.401   0.393  1.00  0.00    -0.031 C 
HETATM   15  C15 UNL     1       0.571   1.385  -0.651  1.00  0.00     0.001 C 
HETATM   16  C16 UNL     1       1.249   0.007  -0.764  1.00  0.00     0.000 C 
HETATM   17  C17 UNL     1       0.229  -1.080  -0.378  1.00  0.00     0.004 C 
HETATM   18  C27 UNL     1      -0.277   1.105   1.673  1.00  0.00     0.001 C 
HETATM   19  C28 UNL     1      -1.553  -0.190  -1.876  1.00  0.00     0.004 C 
HETATM   20  C29 UNL     1      -5.674  -0.358   0.804  1.00  0.00     0.005 C 
HETATM   21  C30 UNL     1      -1.987  -3.888   3.168  1.00  0.00     0.008 C 
HETATM   22  C31 UNL     1      -0.878  -1.798   3.238  1.00  0.00     0.008 C 
HETATM   23  O1  UNL     1      -0.425  -3.701   0.702  1.00  0.00    -0.292 OA
ENDROOT
BRANCH  15  24
HETATM   24  C18 UNL     1       1.554   2.528  -0.267  1.00  0.00     0.000 C 
HETATM   25  C26 UNL     1       0.825   3.882  -0.106  1.00  0.00     0.000 C 
BRANCH  24  26
HETATM   26  C19 UNL     1       2.686   2.758  -1.313  1.00  0.00     0.004 C 
BRANCH  26  27
HETATM   27  C20 UNL     1       3.912   1.832  -1.227  1.00  0.00     0.022 C 
BRANCH  27  28
HETATM   28  C21 UNL     1       5.072   2.097  -2.175  1.00  0.00    -0.045 C 
HETATM   29  C25 UNL     1       5.163   3.215  -2.915  1.00  0.00    -0.009 C 
BRANCH  28  30
HETATM   30  C22 UNL     1       6.130   0.998  -2.220  1.00  0.00     0.018 C 
HETATM   31  C23 UNL     1       7.174   1.135  -3.343  1.00  0.00     0.004 C 
HETATM   32  C24 UNL     1       6.856   0.866  -0.869  1.00  0.00     0.004 C 
ENDBRANCH  28  30
ENDBRANCH  27  28
ENDBRANCH  26  27
ENDBRANCH  24  26
ENDBRANCH  15  24
TORSDOF 5
