REMARK  5 active torsions:
REMARK  status: ('A' for Active; 'I' for Inactive)
REMARK    1  A    between atoms: C3_3  and  O2_11 
REMARK    2  A    between atoms: C5_5  and  C7_7 
REMARK    3  A    between atoms: C8_8  and  C9_9 
REMARK    4  A    between atoms: C11_14  and  C13_16 
REMARK    5  A    between atoms: C17_20  and  O4_22 
ROOT
HETATM    1  C1  UNL     1      -0.570  -0.406   0.680  1.00  0.00     0.027 A 
HETATM    2  C2  UNL     1      -1.039   0.757   0.227  1.00  0.00     0.122 A 
HETATM    3  C3  UNL     1      -2.241   1.222   0.605  1.00  0.00     0.117 A 
HETATM    4  C4  UNL     1      -2.879   0.476   1.531  1.00  0.00     0.026 A 
HETATM    5  C5  UNL     1      -2.430  -0.708   2.006  1.00  0.00     0.002 A 
HETATM    6  C6  UNL     1      -1.244  -1.162   1.552  1.00  0.00     0.002 A 
HETATM    7  O3  UNL     1      -0.252   1.286  -0.556  1.00  0.00    -0.305 OA
HETATM    8  C11 UNL     1       0.752   0.571  -0.669  1.00  0.00     0.100 A 
HETATM    9  C12 UNL     1       0.618  -0.539   0.082  1.00  0.00     0.027 A 
ENDROOT
BRANCH   8  10
HETATM   10  C13 UNL     1       1.810   0.929  -1.428  1.00  0.00     0.025 A 
HETATM   11  C14 UNL     1       1.808   2.105  -2.085  1.00  0.00     0.004 A 
HETATM   12  C15 UNL     1       2.874   2.501  -2.794  1.00  0.00     0.029 A 
HETATM   13  C16 UNL     1       3.968   1.732  -2.900  1.00  0.00     0.153 A 
HETATM   14  C17 UNL     1       3.973   0.518  -2.315  1.00  0.00     0.119 A 
HETATM   15  O5  UNL     1       5.060   2.152  -3.596  1.00  0.00    -0.188 OA
HETATM   16  C18 UNL     1       2.915   0.170  -1.557  1.00  0.00     0.028 A 
BRANCH  14  17
HETATM   17  O4  UNL     1       5.099  -0.263  -2.370  1.00  0.00    -0.326 OA
HETATM   18  C19 UNL     1       5.119  -1.150  -3.466  1.00  0.00     0.181 C 
ENDBRANCH  14  17
ENDBRANCH   8  10
BRANCH   3  19
HETATM   19  O2  UNL     1      -2.715   2.444   0.202  1.00  0.00    -0.326 OA
HETATM   20  C10 UNL     1      -3.323   2.427  -1.069  1.00  0.00     0.181 C 
ENDBRANCH   3  19
BRANCH   5  21
HETATM   21  C7  UNL     1      -3.178  -1.365   2.919  1.00  0.00    -0.002 C 
HETATM   22  C8  UNL     1      -2.910  -2.541   3.513  1.00  0.00     0.009 C 
BRANCH  22  23
HETATM   23  C9  UNL     1      -3.819  -3.182   4.530  1.00  0.00     0.209 C 
HETATM   24  O1  UNL     1      -3.121  -3.417   5.747  1.00  0.00    -0.215 OA
ENDBRANCH  22  23
ENDBRANCH   5  21
TORSDOF 5
