REMARK  3 active torsions:
REMARK  status: ('A' for Active; 'I' for Inactive)
REMARK    1  A    between atoms: C15_16  and  C18_19 
REMARK    2  A    between atoms: C18_19  and  C20_21 
REMARK    3  A    between atoms: C22_24  and  C26_28 
ROOT
HETATM    1  C1  UNL     1      -5.625  -0.634   1.246  1.00  0.00     0.091 C 
HETATM    2  C2  UNL     1      -5.464  -2.123   1.353  1.00  0.00    -0.019 C 
HETATM    3  C3  UNL     1      -4.271  -2.726   1.466  1.00  0.00    -0.008 C 
HETATM    4  C4  UNL     1      -3.104  -2.059   1.570  1.00  0.00    -0.021 C 
HETATM    5  C5  UNL     1      -3.083  -0.539   1.685  1.00  0.00     0.070 C 
HETATM    6  C6  UNL     1      -4.282  -0.029   0.877  1.00  0.00     0.158 C 
HETATM    7  O1  UNL     1      -4.200   0.734  -0.059  1.00  0.00    -0.295 OA
HETATM    8  C7  UNL     1      -1.746   0.039   1.150  1.00  0.00     0.013 C 
HETATM    9  C8  UNL     1      -0.515  -0.660   1.781  1.00  0.00     0.033 C 
HETATM   10  C9  UNL     1      -0.577  -2.188   1.617  1.00  0.00     0.028 C 
HETATM   11  C10 UNL     1      -1.962  -2.769   1.596  1.00  0.00    -0.030 C 
HETATM   12  C11 UNL     1       0.781  -0.093   1.185  1.00  0.00     0.129 C 
HETATM   13  C12 UNL     1       0.949   1.430   1.333  1.00  0.00     0.054 C 
HETATM   14  C13 UNL     1      -0.276   2.112   0.702  1.00  0.00     0.005 C 
HETATM   15  C14 UNL     1      -1.608   1.577   1.268  1.00  0.00     0.001 C 
HETATM   16  C15 UNL     1       2.383   1.687   0.757  1.00  0.00     0.157 C 
HETATM   17  C16 UNL     1       3.142   0.450   1.311  1.00  0.00     0.036 C 
HETATM   18  C17 UNL     1       2.110  -0.628   1.709  1.00  0.00     0.033 C 
HETATM   19  O6  UNL     1       2.912   2.800   1.449  1.00  0.00    -0.223 OA
HETATM   20  C27 UNL     1       0.942   1.847   2.840  1.00  0.00     0.005 C 
HETATM   21  O7  UNL     1       0.737  -0.410  -0.178  1.00  0.00    -0.226 OA
HETATM   22  C28 UNL     1      -3.318  -0.189   3.171  1.00  0.00     0.012 C 
ENDROOT
BRANCH  16  23
HETATM   23  C18 UNL     1       2.713   2.031  -0.739  1.00  0.00     0.178 C 
HETATM   24  C19 UNL     1       2.129   3.387  -1.183  1.00  0.00     0.038 C 
HETATM   25  O5  UNL     1       4.107   2.281  -0.693  1.00  0.00    -0.221 OA
BRANCH  23  26
HETATM   26  C20 UNL     1       2.565   1.014  -1.906  1.00  0.00     0.159 C 
HETATM   27  O2  UNL     1       3.000  -0.258  -1.545  1.00  0.00    -0.298 OA
HETATM   28  C21 UNL     1       2.494  -1.380  -2.125  1.00  0.00     0.294 C 
HETATM   29  C22 UNL     1       1.496  -1.422  -3.045  1.00  0.00     0.066 C 
HETATM   30  O4  UNL     1       2.944  -2.441  -1.742  1.00  0.00    -0.259 OA
HETATM   31  C23 UNL     1       0.914  -0.262  -3.394  1.00  0.00    -0.038 C 
HETATM   32  C24 UNL     1       1.271   1.034  -2.719  1.00  0.00     0.055 C 
HETATM   33  C25 UNL     1      -0.226  -0.140  -4.381  1.00  0.00     0.026 C 
BRANCH  29  34
HETATM   34  C26 UNL     1       1.038  -2.749  -3.616  1.00  0.00     0.213 C 
HETATM   35  O3  UNL     1       1.475  -2.891  -4.961  1.00  0.00    -0.215 OA
ENDBRANCH  29  34
ENDBRANCH  23  26
ENDBRANCH  16  23
TORSDOF 3
