REMARK  1 active torsions:
REMARK  status: ('A' for Active; 'I' for Inactive)
REMARK    1  A    between atoms: C18_19  and  C20_21 
ROOT
HETATM    1  C1  UNL     1      -5.308  -1.585  -1.748  1.00  0.00     0.098 C 
HETATM    2  C2  UNL     1      -5.878  -2.601  -0.767  1.00  0.00     0.164 C 
HETATM    3  C3  UNL     1      -4.770  -3.203   0.093  1.00  0.00     0.055 C 
HETATM    4  C4  UNL     1      -3.551  -2.305   0.200  1.00  0.00    -0.040 C 
HETATM    5  C5  UNL     1      -3.767  -0.798   0.218  1.00  0.00     0.067 C 
HETATM    6  C6  UNL     1      -4.670  -0.443  -0.974  1.00  0.00     0.156 C 
HETATM    7  O1  UNL     1      -4.898   0.699  -1.303  1.00  0.00    -0.296 OA
HETATM    8  C7  UNL     1      -2.425  -0.007   0.098  1.00  0.00     0.013 C 
HETATM    9  C8  UNL     1      -1.295  -0.665   0.922  1.00  0.00     0.030 C 
HETATM   10  C9  UNL     1      -1.055  -2.097   0.424  1.00  0.00     0.028 C 
HETATM   11  C10 UNL     1      -2.335  -2.865   0.296  1.00  0.00    -0.034 C 
HETATM   12  C11 UNL     1       0.020   0.124   0.940  1.00  0.00     0.095 C 
HETATM   13  C12 UNL     1      -0.134   1.607   1.282  1.00  0.00     0.051 C 
HETATM   14  C13 UNL     1      -1.178   2.217   0.323  1.00  0.00     0.005 C 
HETATM   15  C14 UNL     1      -2.534   1.500   0.429  1.00  0.00     0.001 C 
HETATM   16  C15 UNL     1       1.384   1.759   1.023  1.00  0.00     0.153 C 
HETATM   17  C16 UNL     1       2.001   0.835   2.087  1.00  0.00     0.035 C 
HETATM   18  C17 UNL     1       1.055  -0.375   1.967  1.00  0.00     0.030 C 
HETATM   19  C18 UNL     1       1.606   1.136  -0.363  1.00  0.00     0.144 C 
HETATM   20  C19 UNL     1       1.335   2.105  -1.537  1.00  0.00     0.035 C 
HETATM   21  O4  UNL     1       0.629   0.122  -0.330  1.00  0.00    -0.359 OA
HETATM   22  O5  UNL     1       1.840   3.070   1.138  1.00  0.00    -0.223 OA
HETATM   23  C27 UNL     1      -0.579   1.967   2.720  1.00  0.00     0.005 C 
HETATM   24  C28 UNL     1      -4.537  -0.437   1.508  1.00  0.00     0.011 C 
HETATM   25  O6  UNL     1      -6.551  -3.617  -1.473  1.00  0.00    -0.223 OA
ENDROOT
BRANCH  19  26
HETATM   26  C20 UNL     1       2.977   0.474  -0.647  1.00  0.00     0.156 C 
HETATM   27  O2  UNL     1       2.959  -0.103  -1.920  1.00  0.00    -0.298 OA
HETATM   28  C21 UNL     1       4.141  -0.400  -2.534  1.00  0.00     0.291 C 
HETATM   29  C22 UNL     1       5.376  -0.028  -2.095  1.00  0.00     0.034 C 
HETATM   30  O3  UNL     1       4.093  -1.066  -3.549  1.00  0.00    -0.260 OA
HETATM   31  C23 UNL     1       5.447   0.795  -1.032  1.00  0.00    -0.040 C 
HETATM   32  C26 UNL     1       6.582  -0.530  -2.864  1.00  0.00     0.036 C 
HETATM   33  C24 UNL     1       4.187   1.385  -0.453  1.00  0.00     0.055 C 
HETATM   34  C25 UNL     1       6.716   1.337  -0.416  1.00  0.00     0.026 C 
ENDBRANCH  19  26
TORSDOF 1
