REMARK  8 active torsions:
REMARK  status: ('A' for Active; 'I' for Inactive)
REMARK    1  A    between atoms: C4_4  and  C21_26 
REMARK    2  A    between atoms: C7_7  and  C14_16 
REMARK    3  A    between atoms: C10_10  and  O1_11 
REMARK    4  A    between atoms: O1_11  and  C11_12 
REMARK    5  A    between atoms: C14_16  and  C15_17 
REMARK    6  A    between atoms: C15_17  and  C16_18 
REMARK    7  A    between atoms: C21_26  and  O6_27 
REMARK    8  A    between atoms: O6_27  and  C22_28 
ROOT
HETATM    1  C1  UNL     1      -3.385   0.310   0.946  1.00  0.00     0.003 C 
HETATM    2  C2  UNL     1      -3.674  -0.948   0.127  1.00  0.00     0.030 C 
HETATM    3  C3  UNL     1      -2.497  -1.914   0.203  1.00  0.00     0.124 A 
HETATM    4  C4  UNL     1      -1.090  -1.364  -0.232  1.00  0.00     0.079 C 
HETATM    5  C5  UNL     1      -0.875  -0.003   0.521  1.00  0.00     0.007 C 
HETATM    6  C6  UNL     1      -2.087   0.954   0.450  1.00  0.00     0.000 C 
HETATM    7  C7  UNL     1       0.492   0.772   0.367  1.00  0.00     0.003 C 
HETATM    8  C8  UNL     1       1.626  -0.235  -0.003  1.00  0.00     0.003 C 
HETATM    9  C9  UNL     1       1.385  -1.599   0.644  1.00  0.00     0.030 C 
HETATM   10  C10 UNL     1       0.085  -2.294   0.207  1.00  0.00     0.129 C 
HETATM   11  C13 UNL     1       3.088   0.211   0.202  1.00  0.00     0.000 C 
HETATM   12  C20 UNL     1       0.415   1.792  -0.796  1.00  0.00     0.000 C 
HETATM   13  O8  UNL     1      -2.850  -3.319  -0.493  1.00  0.00    -0.354 OA
HETATM   14  C24 UNL     1      -2.736  -3.155   0.897  1.00  0.00     0.169 A 
ENDROOT
BRANCH   7  15
HETATM   15  C14 UNL     1       0.814   1.505   1.720  1.00  0.00     0.037 C 
BRANCH  15  16
HETATM   16  C15 UNL     1       0.675   3.030   1.841  1.00  0.00     0.173 C 
HETATM   17  O5  UNL     1       0.700   3.383   3.214  1.00  0.00    -0.219 OA
BRANCH  16  18
HETATM   18  C16 UNL     1       1.758   3.825   1.168  1.00  0.00     0.021 A 
HETATM   19  C17 UNL     1       3.208   3.779   1.570  1.00  0.00     0.177 A 
HETATM   20  O3  UNL     1       3.847   4.679   0.675  1.00  0.00    -0.294 OA
HETATM   21  C18 UNL     1       2.844   5.192  -0.101  1.00  0.00     0.296 A 
HETATM   22  C19 UNL     1       1.610   4.710   0.176  1.00  0.00     0.065 A 
HETATM   23  O4  UNL     1       3.040   6.016  -0.969  1.00  0.00    -0.259 OA
ENDBRANCH  16  18
ENDBRANCH  15  16
ENDBRANCH   7  15
BRANCH   4  24
HETATM   24  C21 UNL     1      -1.223  -1.208  -1.779  1.00  0.00     0.156 C 
BRANCH  24  25
HETATM   25  O6  UNL     1      -0.005  -1.061  -2.448  1.00  0.00    -0.302 OA
BRANCH  25  26
HETATM   26  C22 UNL     1       0.081  -0.918  -3.800  1.00  0.00     0.272 C 
HETATM   27  O7  UNL     1       1.147  -0.795  -4.367  1.00  0.00    -0.264 OA
HETATM   28  C23 UNL     1      -1.232  -0.884  -4.562  1.00  0.00     0.106 C 
ENDBRANCH  25  26
ENDBRANCH  24  25
ENDBRANCH   4  24
BRANCH  10  29
HETATM   29  O1  UNL     1       0.335  -3.248  -0.785  1.00  0.00    -0.304 OA
BRANCH  29  30
HETATM   30  C11 UNL     1       0.780  -4.515  -0.542  1.00  0.00     0.272 C 
HETATM   31  O2  UNL     1       0.995  -5.301  -1.441  1.00  0.00    -0.264 OA
HETATM   32  C12 UNL     1       0.994  -4.921   0.907  1.00  0.00     0.106 C 
ENDBRANCH  29  30
ENDBRANCH  10  29
TORSDOF 8
