REMARK  9 active torsions:
REMARK  status: ('A' for Active; 'I' for Inactive)
REMARK    1  A    between atoms: C4_4  and  C21_25 
REMARK    2  A    between atoms: C7_7  and  C14_16 
REMARK    3  A    between atoms: C10_10  and  O1_11 
REMARK    4  A    between atoms: O1_11  and  C11_12 
REMARK    5  A    between atoms: C14_16  and  C15_17 
REMARK    6  A    between atoms: C15_17  and  C16_18 
REMARK    7  A    between atoms: C21_25  and  O5_26 
REMARK    8  A    between atoms: O5_26  and  C22_27 
REMARK    9  A    between atoms: C22_27  and  C23_28 
ROOT
HETATM    1  C1  UNL     1      -3.897   0.206   0.701  1.00  0.00     0.035 C 
HETATM    2  C2  UNL     1      -3.957  -1.010  -0.210  1.00  0.00     0.179 C 
HETATM    3  C3  UNL     1      -2.740  -1.906   0.012  1.00  0.00     0.152 A 
HETATM    4  C4  UNL     1      -1.333  -1.229  -0.171  1.00  0.00     0.081 C 
HETATM    5  C5  UNL     1      -1.332   0.087   0.686  1.00  0.00     0.007 C 
HETATM    6  C6  UNL     1      -2.587   0.964   0.450  1.00  0.00     0.003 C 
HETATM    7  C7  UNL     1      -0.012   0.944   0.775  1.00  0.00     0.001 C 
HETATM    8  C8  UNL     1       1.241   0.047   0.546  1.00  0.00     0.003 C 
HETATM    9  C9  UNL     1       1.015  -1.385   1.036  1.00  0.00     0.030 C 
HETATM   10  C10 UNL     1      -0.178  -2.104   0.390  1.00  0.00     0.129 C 
HETATM   11  C13 UNL     1       2.598   0.568   1.059  1.00  0.00     0.000 C 
HETATM   12  C20 UNL     1      -0.010   2.059  -0.297  1.00  0.00     0.000 C 
HETATM   13  O7  UNL     1      -2.923  -3.268  -0.818  1.00  0.00    -0.351 OA
HETATM   14  C27 UNL     1      -2.943  -3.215   0.585  1.00  0.00     0.172 A 
HETATM   15  O8  UNL     1      -5.197  -1.667  -0.016  1.00  0.00    -0.221 OA
ENDROOT
BRANCH   7  16
HETATM   16  C14 UNL     1       0.037   1.593   2.197  1.00  0.00     0.004 C 
BRANCH  16  17
HETATM   17  C15 UNL     1       0.784   2.929   2.365  1.00  0.00     0.025 C 
BRANCH  17  18
HETATM   18  C16 UNL     1       0.974   3.308   3.806  1.00  0.00    -0.009 A 
HETATM   19  C17 UNL     1       1.815   2.515   4.769  1.00  0.00     0.175 A 
HETATM   20  O3  UNL     1       1.745   3.257   5.980  1.00  0.00    -0.294 OA
HETATM   21  C18 UNL     1       0.947   4.334   5.702  1.00  0.00     0.296 A 
HETATM   22  C19 UNL     1       0.485   4.384   4.430  1.00  0.00     0.062 A 
HETATM   23  O4  UNL     1       0.680   5.183   6.525  1.00  0.00    -0.259 OA
ENDBRANCH  17  18
ENDBRANCH  16  17
ENDBRANCH   7  16
BRANCH   4  24
HETATM   24  C21 UNL     1      -1.233  -0.975  -1.707  1.00  0.00     0.157 C 
BRANCH  24  25
HETATM   25  O5  UNL     1       0.063  -0.737  -2.178  1.00  0.00    -0.298 OA
BRANCH  25  26
HETATM   26  C22 UNL     1       0.225  -0.321  -3.475  1.00  0.00     0.291 C 
HETATM   27  O6  UNL     1      -0.753  -0.230  -4.186  1.00  0.00    -0.260 OA
BRANCH  26  28
HETATM   28  C23 UNL     1       1.456   0.025  -3.955  1.00  0.00     0.037 C 
HETATM   29  C24 UNL     1       1.580   0.474  -5.220  1.00  0.00    -0.025 C 
HETATM   30  C25 UNL     1       2.842   0.948  -5.896  1.00  0.00     0.030 C 
HETATM   31  C26 UNL     1       2.644  -0.112  -3.026  1.00  0.00     0.036 C 
ENDBRANCH  26  28
ENDBRANCH  25  26
ENDBRANCH  24  25
ENDBRANCH   4  24
BRANCH  10  32
HETATM   32  O1  UNL     1       0.240  -3.017  -0.585  1.00  0.00    -0.304 OA
BRANCH  32  33
HETATM   33  C11 UNL     1       0.716  -4.227  -0.186  1.00  0.00     0.272 C 
HETATM   34  C12 UNL     1       1.025  -5.087  -1.394  1.00  0.00     0.106 C 
HETATM   35  O2  UNL     1       0.858  -4.579   0.964  1.00  0.00    -0.264 OA
ENDBRANCH  32  33
ENDBRANCH  10  32
TORSDOF 9
