REMARK  7 active torsions:
REMARK  status: ('A' for Active; 'I' for Inactive)
REMARK    1  A    between atoms: C3_3  and  O6_31 
REMARK    2  A    between atoms: C6_6  and  O1_7 
REMARK    3  A    between atoms: C12_13  and  O2_14 
REMARK    4  A    between atoms: N1_17  and  C16_19 
REMARK    5  A    between atoms: C19_23  and  O5_29 
REMARK    6  A    between atoms: C21_25  and  O4_26 
REMARK    7  A    between atoms: O6_31  and  C25_32 
ROOT
HETATM    1  C1  UNL     1      -2.910   1.835   0.938  1.00  0.00     0.032 C 
HETATM    2  C2  UNL     1      -3.393   0.541   1.608  1.00  0.00     0.033 C 
HETATM    3  C3  UNL     1      -2.426  -0.638   1.390  1.00  0.00     0.135 C 
HETATM    4  C4  UNL     1      -0.972  -0.139   1.316  1.00  0.00     0.059 C 
HETATM    5  C5  UNL     1      -0.852   0.678   0.001  1.00  0.00     0.059 C 
HETATM    6  C6  UNL     1      -2.052   1.609  -0.309  1.00  0.00     0.117 C 
HETATM    7  C8  UNL     1       0.394   1.610   0.027  1.00  0.00     0.009 C 
HETATM    8  C9  UNL     1       1.710   0.956   0.448  1.00  0.00     0.056 C 
HETATM    9  C10 UNL     1       1.898  -0.343  -0.341  1.00  0.00     0.135 C 
HETATM   10  C11 UNL     1       0.614  -1.193  -0.213  1.00  0.00     0.087 C 
HETATM   11  C12 UNL     1       0.009  -1.336   1.199  1.00  0.00     0.122 C 
HETATM   12  C14 UNL     1      -0.631  -0.550  -0.906  1.00  0.00     0.226 C 
HETATM   13  N1  UNL     1      -1.685  -1.578  -0.879  1.00  0.00     0.138 N 
HETATM   14  C15 UNL     1      -2.781  -1.351   0.056  1.00  0.00     0.278 C 
HETATM   15  O3  UNL     1       2.975  -1.022   0.257  1.00  0.00    -0.226 OA
HETATM   16  C18 UNL     1       2.296  -0.188  -1.825  1.00  0.00     0.060 C 
HETATM   17  C19 UNL     1       2.857   1.172  -2.253  1.00  0.00     0.120 C 
HETATM   18  C20 UNL     1       2.356   2.292  -1.332  1.00  0.00     0.055 C 
HETATM   19  C21 UNL     1       2.737   2.035   0.126  1.00  0.00     0.120 C 
HETATM   20  C23 UNL     1       0.806   2.336  -1.277  1.00  0.00     0.005 C 
ENDROOT
BRANCH   3  21
HETATM   21  O6  UNL     1      -2.604  -1.574   2.415  1.00  0.00    -0.305 OA
BRANCH  21  22
HETATM   22  C25 UNL     1      -2.222  -1.314   3.695  1.00  0.00     0.272 C 
HETATM   23  C26 UNL     1      -2.352  -2.572   4.532  1.00  0.00     0.106 C 
HETATM   24  O7  UNL     1      -1.819  -0.258   4.124  1.00  0.00    -0.264 OA
ENDBRANCH  21  22
ENDBRANCH   3  21
BRANCH  11  25
HETATM   25  O2  UNL     1       0.916  -1.375   2.261  1.00  0.00    -0.354 OA
HETATM   26  C13 UNL     1       1.515  -2.643   2.432  1.00  0.00     0.174 C 
ENDBRANCH  11  25
BRANCH  13  27
HETATM   27  C16 UNL     1      -2.134  -1.940  -2.221  1.00  0.00     0.250 C 
HETATM   28  C17 UNL     1      -3.118  -3.121  -2.262  1.00  0.00     0.037 C 
ENDBRANCH  13  27
BRANCH   6  29
HETATM   29  O1  UNL     1      -2.807   1.152  -1.395  1.00  0.00    -0.354 OA
HETATM   30  C7  UNL     1      -3.368   2.176  -2.186  1.00  0.00     0.174 C 
ENDBRANCH   6  29
BRANCH  19  31
HETATM   31  O4  UNL     1       4.057   1.613   0.295  1.00  0.00    -0.354 OA
HETATM   32  C22 UNL     1       4.479   1.638   1.641  1.00  0.00     0.174 C 
ENDBRANCH  19  31
BRANCH  17  33
HETATM   33  O5  UNL     1       4.261   1.159  -2.262  1.00  0.00    -0.354 OA
HETATM   34  C24 UNL     1       4.819   0.655  -3.457  1.00  0.00     0.174 C 
ENDBRANCH  17  33
TORSDOF 7
