REMARK  4 active torsions:
REMARK  status: ('A' for Active; 'I' for Inactive)
REMARK    1  A    between atoms: C6_6  and  O1_7 
REMARK    2  A    between atoms: O1_7  and  C7_8 
REMARK    3  A    between atoms: C8_10  and  C12_17 
REMARK    4  A    between atoms: C15_21  and  C17_23 
ROOT
HETATM    1  C1  UNL     1      -2.227  -0.274  -0.640  1.00  0.00     0.182 C 
HETATM    2  C2  UNL     1      -3.055  -1.040   0.382  1.00  0.00     0.066 C 
HETATM    3  C3  UNL     1      -2.145  -1.756   1.388  1.00  0.00     0.129 C 
HETATM    4  C4  UNL     1      -0.821  -0.992   1.606  1.00  0.00     0.031 C 
HETATM    5  C5  UNL     1      -0.908   0.547   1.420  1.00  0.00     0.030 C 
HETATM    6  C6  UNL     1      -1.455   0.886  -0.007  1.00  0.00     0.148 C 
HETATM    7  C13 UNL     1       0.519   1.131   1.633  1.00  0.00     0.003 C 
HETATM    8  C14 UNL     1       1.237   0.671   2.911  1.00  0.00     0.004 C 
HETATM    9  C15 UNL     1       1.345  -0.863   2.979  1.00  0.00     0.018 C 
HETATM   10  C16 UNL     1      -0.091  -1.415   2.895  1.00  0.00     0.006 C 
HETATM   11  C20 UNL     1      -1.824   1.217   2.475  1.00  0.00     0.003 C 
HETATM   12  C21 UNL     1      -2.943  -2.074   2.657  1.00  0.00     0.033 C 
HETATM   13  O7  UNL     1      -1.804  -3.001   0.821  1.00  0.00    -0.226 OA
HETATM   14  O8  UNL     1      -3.078   0.194  -1.660  1.00  0.00    -0.221 OA
ENDROOT
BRANCH   6  15
HETATM   15  O1  UNL     1      -0.388   1.283  -0.828  1.00  0.00    -0.329 OA
BRANCH  15  16
HETATM   16  C7  UNL     1      -0.701   1.812  -2.093  1.00  0.00     0.270 C 
HETATM   17  O2  UNL     1      -0.689   0.766  -3.041  1.00  0.00    -0.326 OA
HETATM   18  C8  UNL     1       0.564   0.217  -3.370  1.00  0.00     0.184 C 
HETATM   19  C9  UNL     1       1.598   1.275  -3.739  1.00  0.00     0.215 C 
HETATM   20  C10 UNL     1       1.659   2.421  -2.747  1.00  0.00     0.220 C 
HETATM   21  O5  UNL     1       1.276   1.806  -5.005  1.00  0.00    -0.218 OA
HETATM   22  C11 UNL     1       0.260   2.921  -2.457  1.00  0.00     0.241 C 
HETATM   23  O4  UNL     1       2.276   1.995  -1.556  1.00  0.00    -0.218 OA
HETATM   24  O3  UNL     1      -0.237   3.591  -3.594  1.00  0.00    -0.215 OA
BRANCH  18  25
HETATM   25  C12 UNL     1       1.045  -0.833  -2.371  1.00  0.00     0.214 C 
HETATM   26  O6  UNL     1       2.156  -1.531  -2.898  1.00  0.00    -0.218 OA
ENDBRANCH  18  25
ENDBRANCH  15  16
ENDBRANCH   6  15
BRANCH   9  27
HETATM   27  C17 UNL     1       2.302  -1.528   1.994  1.00  0.00    -0.044 C 
HETATM   28  C18 UNL     1       2.294  -3.041   1.964  1.00  0.00     0.026 C 
HETATM   29  C19 UNL     1       3.182  -0.868   1.222  1.00  0.00    -0.009 C 
ENDBRANCH   9  27
TORSDOF 4
