REMARK  6 active torsions:
REMARK  status: ('A' for Active; 'I' for Inactive)
REMARK    1  A    between atoms: C2_2  and  C21_26 
REMARK    2  A    between atoms: C4_4  and  C9_10 
REMARK    3  A    between atoms: C9_10  and  C10_11 
REMARK    4  A    between atoms: C12_13  and  C18_21 
REMARK    5  A    between atoms: C18_21  and  C19_22 
REMARK    6  A    between atoms: C21_26  and  C22_28 
ROOT
HETATM    1  C1  UNL     1       2.469  -1.500   1.654  1.00  0.00     0.119 C 
HETATM    2  C2  UNL     1       2.195  -0.917   0.467  1.00  0.00     0.095 C 
HETATM    3  C3  UNL     1       1.051  -1.261  -0.202  1.00  0.00     0.198 C 
HETATM    4  C4  UNL     1       0.087  -2.039   0.365  1.00  0.00     0.043 C 
HETATM    5  C5  UNL     1       0.284  -2.659   1.540  1.00  0.00     0.113 C 
HETATM    6  C6  UNL     1       1.626  -2.624   2.223  1.00  0.00     0.085 C 
HETATM    7  C7  UNL     1       1.423  -2.424   3.739  1.00  0.00     0.013 C 
HETATM    8  C8  UNL     1       2.340  -3.963   1.951  1.00  0.00     0.013 C 
HETATM    9  O1  UNL     1      -0.661  -3.459   2.107  1.00  0.00    -0.195 OA
HETATM   10  O5  UNL     1       0.778  -0.809  -1.293  1.00  0.00    -0.287 OA
HETATM   11  O7  UNL     1       3.589  -1.266   2.391  1.00  0.00    -0.194 OA
ENDROOT
BRANCH   4  12
HETATM   12  C9  UNL     1      -1.254  -2.182  -0.346  1.00  0.00     0.063 C 
BRANCH  12  13
HETATM   13  C10 UNL     1      -1.859  -0.874  -0.850  1.00  0.00     0.043 C 
HETATM   14  C11 UNL     1      -1.662   0.270  -0.138  1.00  0.00     0.191 C 
HETATM   15  C12 UNL     1      -2.076   1.481  -0.596  1.00  0.00     0.038 C 
HETATM   16  O4  UNL     1      -1.064   0.223   0.914  1.00  0.00    -0.287 OA
HETATM   17  C13 UNL     1      -2.774   1.598  -1.739  1.00  0.00     0.113 C 
HETATM   18  C14 UNL     1      -3.227   0.391  -2.526  1.00  0.00     0.085 C 
HETATM   19  O3  UNL     1      -3.177   2.805  -2.222  1.00  0.00    -0.195 OA
HETATM   20  C15 UNL     1      -2.570  -0.862  -1.992  1.00  0.00     0.113 C 
HETATM   21  C16 UNL     1      -4.753   0.254  -2.362  1.00  0.00     0.013 C 
HETATM   22  C17 UNL     1      -2.856   0.574  -4.011  1.00  0.00     0.013 C 
HETATM   23  O2  UNL     1      -2.805  -1.991  -2.716  1.00  0.00    -0.195 OA
BRANCH  15  24
HETATM   24  C18 UNL     1      -1.675   2.725   0.182  1.00  0.00     0.031 C 
BRANCH  24  25
HETATM   25  C19 UNL     1      -0.220   3.104  -0.151  1.00  0.00     0.005 C 
HETATM   26  C20 UNL     1       0.231   4.381   0.569  1.00  0.00     0.000 C 
ENDBRANCH  24  25
ENDBRANCH  15  24
ENDBRANCH  12  13
ENDBRANCH   4  12
BRANCH   2  27
HETATM   27  C21 UNL     1       2.975   0.098  -0.031  1.00  0.00     0.178 C 
HETATM   28  O6  UNL     1       2.793   0.567  -1.133  1.00  0.00    -0.291 OA
BRANCH  27  29
HETATM   29  C22 UNL     1       4.031   0.841   0.789  1.00  0.00     0.069 C 
HETATM   30  C23 UNL     1       4.422   2.216   0.220  1.00  0.00     0.009 C 
ENDBRANCH  27  29
ENDBRANCH   2  27
TORSDOF 6
