REMARK  4 active torsions:
REMARK  status: ('A' for Active; 'I' for Inactive)
REMARK    1  A    between atoms: C2_2  and  C20_26 
REMARK    2  A    between atoms: C4_4  and  C9_10 
REMARK    3  A    between atoms: C9_10  and  C10_11 
REMARK    4  A    between atoms: C12_13  and  C18_21 
ROOT
HETATM    1  C9  UNL     1      -0.638   0.978  -1.350  1.00  0.00     0.063 C 
ENDROOT
BRANCH   1   2
HETATM    2  C4  UNL     1       0.474   1.419  -0.398  1.00  0.00     0.043 C 
HETATM    3  C3  UNL     1       1.254   2.465  -0.799  1.00  0.00     0.198 C 
HETATM    4  C2  UNL     1       2.251   2.997  -0.025  1.00  0.00     0.095 C 
HETATM    5  O6  UNL     1       0.967   2.942  -1.876  1.00  0.00    -0.287 OA
HETATM    6  C1  UNL     1       2.550   2.418   1.157  1.00  0.00     0.119 C 
HETATM    7  C6  UNL     1       1.881   1.147   1.638  1.00  0.00     0.085 C 
HETATM    8  O8  UNL     1       3.536   2.834   1.997  1.00  0.00    -0.194 OA
HETATM    9  C5  UNL     1       0.681   0.821   0.786  1.00  0.00     0.113 C 
HETATM   10  C7  UNL     1       1.455   1.304   3.113  1.00  0.00     0.013 C 
HETATM   11  C8  UNL     1       2.884  -0.017   1.493  1.00  0.00     0.013 C 
HETATM   12  O1  UNL     1      -0.112  -0.183   1.246  1.00  0.00    -0.195 OA
BRANCH   4  13
HETATM   13  C20 UNL     1       2.897   4.133  -0.448  1.00  0.00     0.178 C 
HETATM   14  O7  UNL     1       2.663   4.656  -1.517  1.00  0.00    -0.291 OA
HETATM   15  C21 UNL     1       3.927   4.902   0.373  1.00  0.00     0.077 C 
ENDBRANCH   4  13
ENDBRANCH   1   2
BRANCH   1  16
HETATM   16  C10 UNL     1      -1.307  -0.387  -1.206  1.00  0.00     0.043 C 
HETATM   17  C11 UNL     1      -0.531  -1.494  -1.036  1.00  0.00     0.198 C 
HETATM   18  C12 UNL     1      -1.043  -2.744  -0.837  1.00  0.00     0.095 C 
HETATM   19  O5  UNL     1       0.663  -1.308  -0.992  1.00  0.00    -0.287 OA
HETATM   20  C13 UNL     1      -2.377  -2.938  -0.907  1.00  0.00     0.119 C 
HETATM   21  C14 UNL     1      -3.345  -1.831  -1.265  1.00  0.00     0.085 C 
HETATM   22  O3  UNL     1      -2.991  -4.143  -0.728  1.00  0.00    -0.194 OA
HETATM   23  C15 UNL     1      -2.645  -0.493  -1.286  1.00  0.00     0.113 C 
HETATM   24  C16 UNL     1      -3.896  -2.112  -2.678  1.00  0.00     0.013 C 
HETATM   25  C17 UNL     1      -4.496  -1.787  -0.238  1.00  0.00     0.013 C 
HETATM   26  O2  UNL     1      -3.467   0.576  -1.480  1.00  0.00    -0.195 OA
BRANCH  18  27
HETATM   27  C18 UNL     1      -0.239  -3.813  -0.531  1.00  0.00     0.178 C 
HETATM   28  C19 UNL     1       1.276  -3.723  -0.371  1.00  0.00     0.077 C 
HETATM   29  O4  UNL     1      -0.677  -4.928  -0.340  1.00  0.00    -0.291 OA
ENDBRANCH  18  27
ENDBRANCH   1  16
TORSDOF 4
