REMARK  5 active torsions:
REMARK  status: ('A' for Active; 'I' for Inactive)
REMARK    1  A    between atoms: C1_1  and  C14_17 
REMARK    2  A    between atoms: C4_4  and  C13_15 
REMARK    3  A    between atoms: C8_8  and  C12_12 
REMARK    4  A    between atoms: C14_17  and  C15_18 
REMARK    5  A    between atoms: C15_18  and  C16_19 
ROOT
HETATM    1  C1  UNL     1       0.583   0.175   0.792  1.00  0.00     0.023 C 
HETATM    2  C2  UNL     1       1.961  -0.011   1.490  1.00  0.00    -0.027 C 
HETATM    3  C3  UNL     1       3.275   0.609   1.065  1.00  0.00    -0.004 C 
HETATM    4  C4  UNL     1       3.708   1.383   0.052  1.00  0.00     0.045 C 
HETATM    5  C5  UNL     1       2.944   1.929  -0.931  1.00  0.00     0.172 C 
HETATM    6  C6  UNL     1       1.434   1.827  -0.923  1.00  0.00     0.070 C 
HETATM    7  C7  UNL     1       0.871   0.402  -0.722  1.00  0.00     0.036 C 
HETATM    8  C8  UNL     1      -0.232   0.325  -1.767  1.00  0.00     0.013 C 
HETATM    9  C9  UNL     1      -0.388   1.484  -2.429  1.00  0.00    -0.044 C 
HETATM   10  C10 UNL     1       0.694   2.472  -2.110  1.00  0.00     0.030 C 
HETATM   11  C11 UNL     1      -1.331   1.836  -3.550  1.00  0.00     0.026 C 
HETATM   12  O2  UNL     1       3.461   2.593  -1.803  1.00  0.00    -0.292 OA
HETATM   13  C20 UNL     1      -0.168   1.329   1.502  1.00  0.00     0.005 C 
ENDROOT
BRANCH   1  14
HETATM   14  C14 UNL     1      -0.222  -1.125   1.105  1.00  0.00     0.009 C 
BRANCH  14  15
HETATM   15  C15 UNL     1      -1.762  -1.065   1.034  1.00  0.00     0.026 C 
BRANCH  15  16
HETATM   16  C16 UNL     1      -2.386  -2.440   1.121  1.00  0.00    -0.035 C 
HETATM   17  C17 UNL     1      -3.662  -2.716   1.445  1.00  0.00    -0.048 C 
HETATM   18  C18 UNL     1      -4.161  -4.141   1.513  1.00  0.00     0.026 C 
HETATM   19  C19 UNL     1      -4.702  -1.670   1.764  1.00  0.00     0.026 C 
ENDBRANCH  15  16
ENDBRANCH  14  15
ENDBRANCH   1  14
BRANCH   8  20
HETATM   20  C12 UNL     1      -0.925  -0.784  -2.124  1.00  0.00     0.229 C 
HETATM   21  O1  UNL     1      -0.740  -1.883  -1.661  1.00  0.00    -0.283 OA
ENDBRANCH   8  20
BRANCH   4  22
HETATM   22  C13 UNL     1       5.205   1.654  -0.030  1.00  0.00     0.212 C 
HETATM   23  O3  UNL     1       5.822   0.696  -0.882  1.00  0.00    -0.215 OA
ENDBRANCH   4  22
TORSDOF 5
