REMARK  3 active torsions:
REMARK  status: ('A' for Active; 'I' for Inactive)
REMARK    1  A    between atoms: C2_2  and  O1_25 
REMARK    2  A    between atoms: C15_15  and  C18_18 
REMARK    3  A    between atoms: C18_18  and  N1_20 
ROOT
HETATM    1  C1  UNL     1      -4.253  -1.884   2.093  1.00  0.00     0.030 C 
HETATM    2  C2  UNL     1      -5.238  -1.411   1.016  1.00  0.00     0.119 C 
HETATM    3  C3  UNL     1      -4.913   0.021   0.600  1.00  0.00     0.051 C 
HETATM    4  C4  UNL     1      -3.492   0.191   0.105  1.00  0.00    -0.047 C 
HETATM    5  C5  UNL     1      -2.417  -0.731   0.667  1.00  0.00     0.015 C 
HETATM    6  C6  UNL     1      -2.890  -1.162   2.072  1.00  0.00     0.006 C 
HETATM    7  C7  UNL     1      -1.079   0.070   0.738  1.00  0.00     0.004 C 
HETATM    8  C8  UNL     1      -0.721   0.636  -0.656  1.00  0.00     0.005 C 
HETATM    9  C9  UNL     1      -1.808   1.609  -1.135  1.00  0.00     0.025 C 
HETATM   10  C10 UNL     1      -3.197   1.208  -0.723  1.00  0.00    -0.035 C 
HETATM   11  C11 UNL     1       0.658   1.306  -0.629  1.00  0.00     0.000 C 
HETATM   12  C12 UNL     1       1.787   0.359  -0.169  1.00  0.00     0.002 C 
HETATM   13  C13 UNL     1       1.467   0.006   1.295  1.00  0.00     0.000 C 
HETATM   14  C14 UNL     1       0.092  -0.680   1.420  1.00  0.00     0.000 C 
HETATM   15  C15 UNL     1       3.023   1.274  -0.384  1.00  0.00     0.031 C 
HETATM   16  C16 UNL     1       2.722   1.979  -1.726  1.00  0.00     0.002 C 
HETATM   17  C17 UNL     1       1.191   1.923  -1.926  1.00  0.00     0.000 C 
HETATM   18  C22 UNL     1       1.903  -0.921  -1.026  1.00  0.00     0.000 C 
HETATM   19  C23 UNL     1      -2.279  -1.980  -0.236  1.00  0.00     0.004 C 
ENDROOT
BRANCH  15  20
HETATM   20  C18 UNL     1       4.414   0.676  -0.031  1.00  0.00     0.219 C 
HETATM   21  C19 UNL     1       5.009   1.405   1.200  1.00  0.00     0.035 C 
BRANCH  20  22
HETATM   22  N1  UNL     1       5.462   0.508  -1.042  1.00  0.00     0.139 N 
HETATM   23  C20 UNL     1       5.157  -0.488  -2.057  1.00  0.00     0.285 C 
HETATM   24  C21 UNL     1       5.957   1.738  -1.639  1.00  0.00     0.285 C 
ENDBRANCH  20  22
ENDBRANCH  15  20
BRANCH   2  25
HETATM   25  O1  UNL     1      -6.567  -1.458   1.465  1.00  0.00    -0.354 OA
HETATM   26  C24 UNL     1      -7.057  -2.774   1.617  1.00  0.00     0.174 C 
ENDBRANCH   2  25
TORSDOF 3
