REMARK  5 active torsions:
REMARK  status: ('A' for Active; 'I' for Inactive)
REMARK    1  A    between atoms: C17_19  and  C19_22 
REMARK    2  A    between atoms: C19_22  and  C20_23 
REMARK    3  A    between atoms: C21_24  and  C23_26 
REMARK    4  A    between atoms: C23_26  and  C24_27 
REMARK    5  A    between atoms: C24_27  and  C25_28 
ROOT
HETATM    1  C1  UNL     1      -4.625  -1.412  -0.250  1.00  0.00     0.120 A 
HETATM    2  C2  UNL     1      -4.662  -2.813  -0.289  1.00  0.00     0.155 A 
HETATM    3  C3  UNL     1      -3.465  -3.528  -0.265  1.00  0.00     0.054 A 
HETATM    4  C4  UNL     1      -2.212  -2.920  -0.156  1.00  0.00     0.105 A 
HETATM    5  C5  UNL     1      -2.181  -1.524  -0.033  1.00  0.00     0.064 A 
HETATM    6  C6  UNL     1      -3.375  -0.775  -0.109  1.00  0.00     0.029 A 
HETATM    7  C7  UNL     1      -3.419   0.693  -0.164  1.00  0.00    -0.000 C 
HETATM    8  C8  UNL     1      -4.596   1.310   0.035  1.00  0.00     0.001 C 
HETATM    9  C9  UNL     1      -5.827   0.513   0.385  1.00  0.00     0.117 C 
HETATM   10  O1  UNL     1      -5.810  -0.725  -0.272  1.00  0.00    -0.330 OA
HETATM   11  C10 UNL     1      -7.094   1.249  -0.065  1.00  0.00     0.035 C 
HETATM   12  C11 UNL     1      -5.872   0.282   1.901  1.00  0.00     0.035 C 
HETATM   13  C12 UNL     1      -0.845  -0.891   0.149  1.00  0.00     0.201 C 
HETATM   14  C13 UNL     1       0.337  -1.734  -0.190  1.00  0.00     0.087 A 
HETATM   15  C14 UNL     1       0.102  -3.108  -0.340  1.00  0.00     0.107 A 
HETATM   16  O2  UNL     1      -1.100  -3.703  -0.097  1.00  0.00    -0.307 OA
HETATM   17  C15 UNL     1       1.192  -3.909  -0.678  1.00  0.00     0.052 A 
HETATM   18  C16 UNL     1       2.471  -3.396  -0.898  1.00  0.00     0.131 A 
HETATM   19  C17 UNL     1       2.685  -2.017  -0.745  1.00  0.00     0.033 A 
HETATM   20  C18 UNL     1       1.616  -1.172  -0.387  1.00  0.00     0.134 A 
HETATM   21  O3  UNL     1       1.852   0.154  -0.195  1.00  0.00    -0.190 OA
HETATM   22  O4  UNL     1       3.491  -4.248  -1.190  1.00  0.00    -0.190 OA
HETATM   23  O5  UNL     1      -0.723   0.244   0.594  1.00  0.00    -0.286 OA
HETATM   24  O6  UNL     1      -5.845  -3.479  -0.381  1.00  0.00    -0.188 OA
ENDROOT
BRANCH  19  25
HETATM   25  C19 UNL     1       4.111  -1.519  -0.937  1.00  0.00     0.056 C 
BRANCH  25  26
HETATM   26  C20 UNL     1       4.332  -0.046  -1.163  1.00  0.00    -0.030 C 
HETATM   27  C21 UNL     1       5.220   0.751  -0.540  1.00  0.00    -0.048 C 
HETATM   28  C22 UNL     1       6.230   0.285   0.484  1.00  0.00     0.026 C 
BRANCH  27  29
HETATM   29  C23 UNL     1       5.288   2.235  -0.846  1.00  0.00     0.026 C 
BRANCH  29  30
HETATM   30  C24 UNL     1       3.929   2.953  -0.770  1.00  0.00     0.030 C 
BRANCH  30  31
HETATM   31  C25 UNL     1       3.260   2.768   0.571  1.00  0.00    -0.034 C 
HETATM   32  C26 UNL     1       1.958   2.971   0.839  1.00  0.00    -0.048 C 
HETATM   33  C27 UNL     1       1.398   2.729   2.221  1.00  0.00     0.026 C 
HETATM   34  C28 UNL     1       0.953   3.458  -0.177  1.00  0.00     0.026 C 
ENDBRANCH  30  31
ENDBRANCH  29  30
ENDBRANCH  27  29
ENDBRANCH  25  26
ENDBRANCH  19  25
TORSDOF 5
