REMARK  6 active torsions:
REMARK  status: ('A' for Active; 'I' for Inactive)
REMARK    1  A    between atoms: C5_5  and  C7_8 
REMARK    2  A    between atoms: C7_8  and  C8_9 
REMARK    3  A    between atoms: C15_19  and  C19_25 
REMARK    4  A    between atoms: C15_19  and  C24_30 
REMARK    5  A    between atoms: C19_25  and  C20_26 
REMARK    6  A    between atoms: C24_30  and  C25_31 
ROOT
HETATM    1  C1  UNL     1       1.556  -1.562   0.109  1.00  0.00     0.087 A 
HETATM    2  C2  UNL     1       1.594  -2.933  -0.168  1.00  0.00     0.107 A 
HETATM    3  C3  UNL     1       2.849  -3.518  -0.336  1.00  0.00     0.052 A 
HETATM    4  C4  UNL     1       4.045  -2.803  -0.248  1.00  0.00     0.131 A 
HETATM    5  C5  UNL     1       3.983  -1.435   0.060  1.00  0.00     0.033 A 
HETATM    6  C6  UNL     1       2.738  -0.803   0.244  1.00  0.00     0.134 A 
HETATM    7  O1  UNL     1       2.718   0.510   0.605  1.00  0.00    -0.190 OA
HETATM    8  O2  UNL     1       5.224  -3.466  -0.393  1.00  0.00    -0.190 OA
HETATM    9  O3  UNL     1       0.488  -3.715  -0.276  1.00  0.00    -0.307 OA
HETATM   10  C12 UNL     1      -0.744  -3.166  -0.077  1.00  0.00     0.102 A 
HETATM   11  C13 UNL     1      -0.981  -1.853   0.184  1.00  0.00     0.047 A 
HETATM   12  C14 UNL     1       0.208  -0.953   0.249  1.00  0.00     0.198 A 
HETATM   13  O4  UNL     1       0.075   0.257   0.383  1.00  0.00    -0.287 OA
HETATM   14  C15 UNL     1      -2.405  -1.275   0.270  1.00  0.00     0.089 C 
HETATM   15  C16 UNL     1      -3.440  -2.381   0.558  1.00  0.00     0.202 C 
HETATM   16  C17 UNL     1      -3.145  -3.765   0.122  1.00  0.00     0.168 C 
HETATM   17  C18 UNL     1      -1.873  -4.085  -0.181  1.00  0.00     0.055 C 
HETATM   18  O5  UNL     1      -4.157  -4.670   0.041  1.00  0.00    -0.187 OA
HETATM   19  O6  UNL     1      -4.532  -2.160   1.068  1.00  0.00    -0.289 OA
ENDROOT
BRANCH  14  20
HETATM   20  C19 UNL     1      -2.535  -0.216   1.407  1.00  0.00     0.037 C 
BRANCH  20  21
HETATM   21  C20 UNL     1      -2.409   1.250   1.056  1.00  0.00    -0.034 C 
HETATM   22  C21 UNL     1      -2.676   2.274   1.887  1.00  0.00    -0.048 C 
HETATM   23  C22 UNL     1      -2.562   3.709   1.425  1.00  0.00     0.026 C 
HETATM   24  C23 UNL     1      -3.120   2.112   3.321  1.00  0.00     0.026 C 
ENDBRANCH  20  21
ENDBRANCH  14  20
BRANCH  14  25
HETATM   25  C24 UNL     1      -2.746  -0.743  -1.147  1.00  0.00     0.037 C 
BRANCH  25  26
HETATM   26  C25 UNL     1      -4.030   0.045  -1.253  1.00  0.00    -0.034 C 
HETATM   27  C26 UNL     1      -4.293   1.023  -2.138  1.00  0.00    -0.048 C 
HETATM   28  C27 UNL     1      -5.609   1.766  -2.113  1.00  0.00     0.026 C 
HETATM   29  C28 UNL     1      -3.339   1.485  -3.215  1.00  0.00     0.026 C 
ENDBRANCH  25  26
ENDBRANCH  14  25
BRANCH   5  30
HETATM   30  C7  UNL     1       5.269  -0.645   0.237  1.00  0.00     0.056 C 
BRANCH  30  31
HETATM   31  C8  UNL     1       5.279   0.715  -0.414  1.00  0.00    -0.030 C 
HETATM   32  C9  UNL     1       6.017   1.768  -0.018  1.00  0.00    -0.048 C 
HETATM   33  C10 UNL     1       5.926   3.103  -0.720  1.00  0.00     0.026 C 
HETATM   34  C11 UNL     1       6.988   1.736   1.137  1.00  0.00     0.026 C 
ENDBRANCH  30  31
ENDBRANCH   5  30
TORSDOF 6
