REMARK  10 active torsions:
REMARK  status: ('A' for Active; 'I' for Inactive)
REMARK    1  A    between atoms: C5_5  and  C7_7 
REMARK    2  A    between atoms: C7_7  and  C8_8 
REMARK    3  A    between atoms: C8_8  and  C9_9 
REMARK    4  A    between atoms: C9_9  and  C10_11 
REMARK    5  A    between atoms: C10_11  and  C11_12 
REMARK    6  A    between atoms: C11_12  and  C12_13 
REMARK    7  A    between atoms: C11_12  and  O4_23 
REMARK    8  A    between atoms: C12_13  and  C13_14 
REMARK    9  A    between atoms: C13_14  and  C14_15 
REMARK   10  A    between atoms: O4_23  and  C20_24 
ROOT
HETATM    1  C11 UNL     1      -0.732  -0.696   0.342  1.00  0.00     0.126 C 
ENDROOT
BRANCH   1   2
HETATM    2  C10 UNL     1       0.743  -1.132   0.432  1.00  0.00     0.094 C 
BRANCH   2   3
HETATM    3  C9  UNL     1       1.741  -0.005   0.670  1.00  0.00     0.153 C 
HETATM    4  O1  UNL     1       1.369   1.115   0.946  1.00  0.00    -0.296 OA
BRANCH   3   5
HETATM    5  C8  UNL     1       3.237  -0.252   0.515  1.00  0.00     0.069 C 
BRANCH   5   6
HETATM    6  C7  UNL     1       3.703  -1.713   0.454  1.00  0.00     0.034 C 
BRANCH   6   7
HETATM    7  C5  UNL     1       5.205  -1.921   0.470  1.00  0.00    -0.022 A 
HETATM    8  C4  UNL     1       5.724  -3.174   0.819  1.00  0.00    -0.002 A 
HETATM    9  C3  UNL     1       7.100  -3.405   0.862  1.00  0.00     0.027 A 
HETATM   10  C2  UNL     1       8.016  -2.394   0.556  1.00  0.00     0.131 A 
HETATM   11  C1  UNL     1       7.498  -1.147   0.197  1.00  0.00     0.027 A 
HETATM   12  O9  UNL     1       9.354  -2.624   0.605  1.00  0.00    -0.190 OA
HETATM   13  C6  UNL     1       6.123  -0.913   0.152  1.00  0.00    -0.002 A 
ENDBRANCH   6   7
ENDBRANCH   5   6
ENDBRANCH   3   5
ENDBRANCH   2   3
ENDBRANCH   1   2
BRANCH   1  14
HETATM   14  C12 UNL     1      -0.936   0.311  -0.805  1.00  0.00     0.035 C 
BRANCH  14  15
HETATM   15  C13 UNL     1      -2.037  -0.101  -1.798  1.00  0.00     0.029 C 
BRANCH  15  16
HETATM   16  C14 UNL     1      -2.236   0.787  -3.009  1.00  0.00    -0.020 A 
HETATM   17  C15 UNL     1      -3.154   0.395  -3.990  1.00  0.00    -0.002 A 
HETATM   18  C16 UNL     1      -3.372   1.177  -5.125  1.00  0.00     0.029 A 
HETATM   19  C17 UNL     1      -2.676   2.373  -5.317  1.00  0.00     0.156 A 
HETATM   20  C18 UNL     1      -1.753   2.781  -4.348  1.00  0.00     0.156 A 
HETATM   21  O3  UNL     1      -2.873   3.151  -6.414  1.00  0.00    -0.188 OA
HETATM   22  C19 UNL     1      -1.549   1.988  -3.215  1.00  0.00     0.025 A 
HETATM   23  O2  UNL     1      -1.069   3.943  -4.517  1.00  0.00    -0.188 OA
ENDBRANCH  15  16
ENDBRANCH  14  15
ENDBRANCH   1  14
BRANCH   1  24
HETATM   24  O4  UNL     1      -1.105  -0.229   1.615  1.00  0.00    -0.331 OA
BRANCH  24  25
HETATM   25  C20 UNL     1      -2.436   0.226   1.748  1.00  0.00     0.270 C 
HETATM   26  O5  UNL     1      -2.344   1.637   1.785  1.00  0.00    -0.326 OA
HETATM   27  C21 UNL     1      -3.597   2.253   1.960  1.00  0.00     0.181 C 
HETATM   28  C22 UNL     1      -4.227   1.817   3.271  1.00  0.00     0.215 C 
HETATM   29  C23 UNL     1      -4.363   0.310   3.292  1.00  0.00     0.220 C 
HETATM   30  O8  UNL     1      -5.507   2.381   3.415  1.00  0.00    -0.218 OA
HETATM   31  C24 UNL     1      -2.993  -0.289   3.058  1.00  0.00     0.241 C 
HETATM   32  O7  UNL     1      -4.856  -0.100   4.541  1.00  0.00    -0.218 OA
HETATM   33  O6  UNL     1      -3.115  -1.688   2.998  1.00  0.00    -0.215 OA
ENDBRANCH  24  25
ENDBRANCH   1  24
TORSDOF 10
