REMARK  0 active torsions:
REMARK  status: ('A' for Active; 'I' for Inactive)
ROOT
HETATM    1  C1  UNL     1      -2.347   2.907   0.614  1.00  0.00     0.027 A 
HETATM    2  C2  UNL     1      -2.610   1.535   0.510  1.00  0.00     0.131 A 
HETATM    3  C3  UNL     1      -1.640   0.746  -0.113  1.00  0.00     0.027 A 
HETATM    4  C4  UNL     1      -0.488   1.331  -0.655  1.00  0.00    -0.002 A 
HETATM    5  C5  UNL     1      -0.187   2.679  -0.484  1.00  0.00    -0.022 A 
HETATM    6  C6  UNL     1      -1.155   3.469   0.149  1.00  0.00    -0.002 A 
HETATM    7  C7  UNL     1       1.135   3.231  -0.973  1.00  0.00     0.029 C 
HETATM    8  C8  UNL     1       2.368   2.617  -0.275  1.00  0.00     0.037 C 
HETATM    9  C9  UNL     1       2.686   1.161  -0.624  1.00  0.00     0.150 A 
HETATM   10  C10 UNL     1       2.624   0.194   0.392  1.00  0.00     0.199 A 
HETATM   11  C11 UNL     1       2.480  -1.201  -0.083  1.00  0.00     0.180 C 
HETATM   12  C12 UNL     1       2.192  -2.318   0.926  1.00  0.00     0.072 C 
HETATM   13  C13 UNL     1       1.088  -3.314   0.508  1.00  0.00     0.034 C 
HETATM   14  C14 UNL     1      -0.262  -2.713   0.171  1.00  0.00    -0.022 C 
HETATM   15  C15 UNL     1      -0.529  -1.360   0.360  1.00  0.00    -0.002 C 
HETATM   16  C16 UNL     1      -1.680  -0.741  -0.140  1.00  0.00     0.027 C 
HETATM   17  C17 UNL     1      -2.718  -1.508  -0.674  1.00  0.00     0.131 C 
HETATM   18  O1  UNL     1      -3.857  -0.944  -1.149  1.00  0.00    -0.190 OA
HETATM   19  C18 UNL     1      -2.500  -2.888  -0.774  1.00  0.00     0.027 C 
HETATM   20  C19 UNL     1      -1.294  -3.478  -0.387  1.00  0.00    -0.002 C 
HETATM   21  O2  UNL     1       2.519  -1.487  -1.260  1.00  0.00    -0.293 OA
HETATM   22  O3  UNL     1       4.015   0.754   0.045  1.00  0.00    -0.346 OA
HETATM   23  O4  UNL     1      -3.739   0.978   1.020  1.00  0.00    -0.190 OA
ENDROOT
TORSDOF 0
