REMARK  0 active torsions:
REMARK  status: ('A' for Active; 'I' for Inactive)
ROOT
HETATM    1  C1  UNL     1      -3.131  -2.710  -0.210  1.00  0.00     0.027 C 
HETATM    2  C2  UNL     1      -3.185  -1.320  -0.398  1.00  0.00     0.131 C 
HETATM    3  C3  UNL     1      -1.970  -0.628  -0.424  1.00  0.00     0.027 C 
HETATM    4  C4  UNL     1      -0.784  -1.368  -0.368  1.00  0.00    -0.002 C 
HETATM    5  C5  UNL     1      -0.705  -2.731  -0.117  1.00  0.00    -0.022 C 
HETATM    6  C6  UNL     1      -1.928  -3.407  -0.050  1.00  0.00    -0.002 C 
HETATM    7  C7  UNL     1       0.642  -3.392   0.101  1.00  0.00     0.034 C 
HETATM    8  C8  UNL     1       1.889  -2.474   0.007  1.00  0.00     0.069 C 
HETATM    9  C9  UNL     1       2.078  -1.460   1.143  1.00  0.00     0.153 C 
HETATM   10  C10 UNL     1       1.996   0.071   1.009  1.00  0.00     0.097 C 
HETATM   11  C11 UNL     1       2.757   0.803  -0.105  1.00  0.00     0.160 C 
HETATM   12  C12 UNL     1       2.523   2.326  -0.156  1.00  0.00     0.038 C 
HETATM   13  C13 UNL     1       1.384   2.876  -1.050  1.00  0.00     0.029 C 
HETATM   14  C14 UNL     1      -0.002   2.522  -0.560  1.00  0.00    -0.022 C 
HETATM   15  C15 UNL     1      -0.651   1.378  -1.023  1.00  0.00    -0.002 C 
HETATM   16  C16 UNL     1      -1.765   0.845  -0.351  1.00  0.00     0.027 C 
HETATM   17  C17 UNL     1      -2.428   1.622   0.610  1.00  0.00     0.131 C 
HETATM   18  O1  UNL     1      -3.472   1.151   1.339  1.00  0.00    -0.190 OA
HETATM   19  C18 UNL     1      -1.863   2.857   0.954  1.00  0.00     0.027 C 
HETATM   20  C19 UNL     1      -0.655   3.291   0.408  1.00  0.00    -0.002 C 
HETATM   21  O2  UNL     1       2.478   0.261  -1.369  1.00  0.00    -0.223 OA
HETATM   22  O3  UNL     1       2.264  -1.915   2.251  1.00  0.00    -0.296 OA
HETATM   23  O4  UNL     1      -4.370  -0.663  -0.477  1.00  0.00    -0.190 OA
ENDROOT
TORSDOF 0
