REMARK  20 active torsions:
REMARK  status: ('A' for Active; 'I' for Inactive)
REMARK    1  A    between atoms: C5_5  and  C7_7 
REMARK    2  A    between atoms: C8_8  and  C9_9 
REMARK    3  A    between atoms: C9_9  and  O2_11 
REMARK    4  A    between atoms: O2_11  and  C10_12 
REMARK    5  A    between atoms: C16_18  and  C19_21 
REMARK    6  A    between atoms: C28_33  and  O6_35 
REMARK    7  A    between atoms: O6_35  and  C30_36 
REMARK    8  A    between atoms: C32_39  and  O9_44 
REMARK    9  A    between atoms: C33_40  and  O8_42 
REMARK   10  A    between atoms: O9_44  and  C36_45 
REMARK   11  A    between atoms: C38_48  and  O12_53 
REMARK   12  A    between atoms: C39_49  and  O11_51 
REMARK   13  A    between atoms: O12_53  and  C42_54 
REMARK   14  A    between atoms: C44_57  and  O16_63 
REMARK   15  A    between atoms: C45_58  and  O15_61 
REMARK   16  A    between atoms: O16_63  and  C48_64 
REMARK   17  A    between atoms: C49_66  and  C59_84 
REMARK   18  A    between atoms: C50_67  and  O20_72 
REMARK   19  A    between atoms: O20_72  and  C53_73 
REMARK   20  A    between atoms: C54_75  and  C58_82 
ROOT
HETATM    1  C30 UNL     1       1.885   3.396  -3.467  1.00  0.00     0.238 C 
HETATM    2  O7  UNL     1       0.931   3.108  -4.467  1.00  0.00    -0.331 OA
HETATM    3  C31 UNL     1       0.480   1.781  -4.418  1.00  0.00     0.147 C 
HETATM    4  C32 UNL     1      -0.175   1.483  -3.066  1.00  0.00     0.172 C 
HETATM    5  C33 UNL     1       0.826   1.732  -1.933  1.00  0.00     0.150 C 
HETATM    6  C34 UNL     1       1.290   3.181  -2.086  1.00  0.00     0.094 C 
HETATM    7  C62 UNL     1      -0.487   1.578  -5.588  1.00  0.00     0.035 C 
ENDROOT
BRANCH   4   8
HETATM    8  O9  UNL     1      -0.689   0.178  -3.086  1.00  0.00    -0.328 OA
BRANCH   8   9
HETATM    9  C36 UNL     1      -1.333  -0.223  -1.893  1.00  0.00     0.238 C 
HETATM   10  O10 UNL     1      -0.399  -1.086  -1.283  1.00  0.00    -0.331 OA
HETATM   11  C37 UNL     1      -0.862  -1.641  -0.085  1.00  0.00     0.147 C 
HETATM   12  C38 UNL     1      -2.141  -2.451  -0.321  1.00  0.00     0.172 C 
HETATM   13  C61 UNL     1       0.267  -2.503   0.487  1.00  0.00     0.035 C 
HETATM   14  C39 UNL     1      -3.220  -1.559  -0.942  1.00  0.00     0.150 C 
HETATM   15  C40 UNL     1      -2.616  -0.966  -2.220  1.00  0.00     0.094 C 
BRANCH  12  16
HETATM   16  O12 UNL     1      -2.512  -3.036   0.898  1.00  0.00    -0.327 OA
BRANCH  16  17
HETATM   17  C42 UNL     1      -3.688  -3.819   0.863  1.00  0.00     0.270 C 
HETATM   18  O13 UNL     1      -4.618  -3.078   1.612  1.00  0.00    -0.329 OA
HETATM   19  C43 UNL     1      -5.861  -3.713   1.688  1.00  0.00     0.148 C 
HETATM   20  C44 UNL     1      -5.756  -5.108   2.326  1.00  0.00     0.175 C 
HETATM   21  C60 UNL     1      -6.793  -2.781   2.470  1.00  0.00     0.035 C 
HETATM   22  C45 UNL     1      -4.716  -5.959   1.575  1.00  0.00     0.180 C 
HETATM   23  C46 UNL     1      -3.425  -5.144   1.530  1.00  0.00     0.237 C 
HETATM   24  O14 UNL     1      -2.423  -5.780   0.776  1.00  0.00    -0.215 OA
BRANCH  20  25
HETATM   25  O16 UNL     1      -7.061  -5.626   2.286  1.00  0.00    -0.326 OA
BRANCH  25  26
HETATM   26  C48 UNL     1      -7.305  -6.825   2.989  1.00  0.00     0.270 C 
HETATM   27  O17 UNL     1      -7.535  -7.770   1.968  1.00  0.00    -0.326 OA
HETATM   28  C49 UNL     1      -7.825  -9.049   2.462  1.00  0.00     0.181 C 
HETATM   29  C50 UNL     1      -9.064  -9.046   3.376  1.00  0.00     0.181 C 
HETATM   30  C51 UNL     1      -8.900  -7.993   4.467  1.00  0.00     0.217 C 
HETATM   31  C52 UNL     1      -8.558  -6.669   3.811  1.00  0.00     0.241 C 
HETATM   32  O19 UNL     1     -10.086  -7.779   5.192  1.00  0.00    -0.218 OA
HETATM   33  O18 UNL     1      -8.345  -5.700   4.807  1.00  0.00    -0.215 OA
BRANCH  28  34
HETATM   34  C59 UNL     1      -8.029  -9.975   1.264  1.00  0.00     0.214 C 
HETATM   35  O26 UNL     1      -6.806 -10.172   0.585  1.00  0.00    -0.218 OA
ENDBRANCH  28  34
BRANCH  29  36
HETATM   36  O20 UNL     1      -9.167 -10.355   3.865  1.00  0.00    -0.326 OA
BRANCH  36  37
HETATM   37  C53 UNL     1     -10.294 -10.664   4.654  1.00  0.00     0.270 C 
HETATM   38  O21 UNL     1      -9.767 -10.805   5.957  1.00  0.00    -0.326 OA
HETATM   39  C54 UNL     1     -10.726 -11.205   6.902  1.00  0.00     0.184 C 
HETATM   40  C55 UNL     1     -11.334 -12.543   6.491  1.00  0.00     0.215 C 
HETATM   41  C56 UNL     1     -11.940 -12.437   5.108  1.00  0.00     0.220 C 
HETATM   42  O24 UNL     1     -12.354 -12.936   7.377  1.00  0.00    -0.218 OA
HETATM   43  C57 UNL     1     -10.852 -11.981   4.165  1.00  0.00     0.241 C 
HETATM   44  O23 UNL     1     -12.421 -13.693   4.705  1.00  0.00    -0.218 OA
HETATM   45  O22 UNL     1     -11.397 -11.812   2.881  1.00  0.00    -0.215 OA
BRANCH  39  46
HETATM   46  C58 UNL     1     -10.040 -11.315   8.257  1.00  0.00     0.214 C 
HETATM   47  O25 UNL     1      -9.567 -10.047   8.668  1.00  0.00    -0.218 OA
ENDBRANCH  39  46
ENDBRANCH  36  37
ENDBRANCH  29  36
ENDBRANCH  25  26
ENDBRANCH  20  25
BRANCH  22  48
HETATM   48  O15 UNL     1      -4.490  -7.163   2.257  1.00  0.00    -0.349 OA
HETATM   49  C47 UNL     1      -4.142  -8.249   1.426  1.00  0.00     0.174 C 
ENDBRANCH  22  48
ENDBRANCH  16  17
ENDBRANCH  12  16
BRANCH  14  50
HETATM   50  O11 UNL     1      -3.571  -0.558  -0.024  1.00  0.00    -0.351 OA
HETATM   51  C41 UNL     1      -4.823   0.038  -0.282  1.00  0.00     0.174 C 
ENDBRANCH  14  50
ENDBRANCH   8   9
ENDBRANCH   4   8
BRANCH   5  52
HETATM   52  O8  UNL     1       1.898   0.835  -2.050  1.00  0.00    -0.351 OA
HETATM   53  C35 UNL     1       2.677   0.721  -0.879  1.00  0.00     0.174 C 
ENDBRANCH   5  52
BRANCH   1  54
HETATM   54  O6  UNL     1       2.168   4.767  -3.671  1.00  0.00    -0.333 OA
BRANCH  54  55
HETATM   55  C28 UNL     1       3.535   5.076  -3.696  1.00  0.00     0.122 C 
HETATM   56  C27 UNL     1       3.675   6.541  -4.133  1.00  0.00     0.030 C 
HETATM   57  C26 UNL     1       5.105   7.105  -3.998  1.00  0.00     0.006 C 
HETATM   58  C25 UNL     1       5.722   6.871  -2.600  1.00  0.00     0.018 C 
HETATM   59  C12 UNL     1       7.199   7.361  -2.464  1.00  0.00     0.037 C 
HETATM   60  C24 UNL     1       5.588   5.373  -2.408  1.00  0.00    -0.046 C 
HETATM   61  C63 UNL     1       4.889   7.631  -1.528  1.00  0.00     0.004 C 
HETATM   62  C11 UNL     1       7.509   8.668  -3.201  1.00  0.00     0.033 C 
HETATM   63  C13 UNL     1       8.364   6.348  -2.514  1.00  0.00     0.157 C 
HETATM   64  C10 UNL     1       8.835   9.272  -2.734  1.00  0.00     0.130 C 
HETATM   65  C15 UNL     1      10.023   8.389  -3.176  1.00  0.00     0.086 C 
HETATM   66  C14 UNL     1       9.727   6.849  -3.086  1.00  0.00     0.157 C 
HETATM   67  C16 UNL     1      10.455   8.640  -4.666  1.00  0.00     0.182 C 
HETATM   68  C21 UNL     1      11.223   8.769  -2.254  1.00  0.00     0.008 C 
HETATM   69  C18 UNL     1      10.058   6.318  -4.493  1.00  0.00     0.036 C 
HETATM   70  O5  UNL     1      10.707   6.227  -2.283  1.00  0.00    -0.223 OA
HETATM   71  C17 UNL     1      11.060   7.306  -5.088  1.00  0.00     0.041 C 
HETATM   72  O4  UNL     1      11.460   9.634  -4.757  1.00  0.00    -0.218 OA
HETATM   73  C22 UNL     1       7.925   5.031  -3.157  1.00  0.00     0.058 C 
HETATM   74  O27 UNL     1       8.611   5.995  -1.164  1.00  0.00    -0.223 OA
HETATM   75  C23 UNL     1       6.610   4.537  -2.640  1.00  0.00    -0.032 C 
HETATM   76  C29 UNL     1       4.185   4.827  -2.328  1.00  0.00     0.051 C 
BRANCH  64  77
HETATM   77  O2  UNL     1       8.843   9.415  -1.338  1.00  0.00    -0.301 OA
BRANCH  77  78
HETATM   78  C9  UNL     1       7.873  10.159  -0.731  1.00  0.00     0.296 C 
HETATM   79  O1  UNL     1       7.342  11.097  -1.318  1.00  0.00    -0.259 OA
BRANCH  78  80
HETATM   80  C8  UNL     1       7.243   9.720   0.544  1.00  0.00     0.068 C 
HETATM   81  C7  UNL     1       7.629   8.587   1.176  1.00  0.00     0.005 C 
BRANCH  81  82
HETATM   82  C5  UNL     1       6.963   8.015   2.356  1.00  0.00     0.000 A 
HETATM   83  C4  UNL     1       7.093   6.635   2.589  1.00  0.00     0.000 A 
HETATM   84  C3  UNL     1       6.462   6.030   3.676  1.00  0.00     0.000 A 
HETATM   85  C2  UNL     1       5.709   6.801   4.565  1.00  0.00     0.000 A 
HETATM   86  C1  UNL     1       5.599   8.178   4.363  1.00  0.00     0.000 A 
HETATM   87  C6  UNL     1       6.222   8.781   3.268  1.00  0.00     0.000 A 
ENDBRANCH  81  82
ENDBRANCH  78  80
ENDBRANCH  77  78
ENDBRANCH  64  77
BRANCH  67  88
HETATM   88  C19 UNL     1       9.400   9.169  -5.647  1.00  0.00     0.178 C 
HETATM   89  O3  UNL     1       9.228  10.368  -5.597  1.00  0.00    -0.293 OA
HETATM   90  C20 UNL     1       8.679   8.346  -6.701  1.00  0.00     0.075 C 
ENDBRANCH  67  88
ENDBRANCH  54  55
ENDBRANCH   1  54
TORSDOF 20
