REMARK  13 active torsions:
REMARK  status: ('A' for Active; 'I' for Inactive)
REMARK    1  A    between atoms: C2_2  and  C17_20 
REMARK    2  A    between atoms: C4_4  and  C8_9 
REMARK    3  A    between atoms: C5_5  and  O1_7 
REMARK    4  A    between atoms: C8_9  and  C9_11 
REMARK    5  A    between atoms: C9_11  and  C10_12 
REMARK    6  A    between atoms: C10_12  and  C11_13 
REMARK    7  A    between atoms: C17_20  and  C18_21 
REMARK    8  A    between atoms: C17_20  and  C24_28 
REMARK    9  A    between atoms: C25_29  and  C26_30 
REMARK   10  A    between atoms: C26_30  and  C27_31 
REMARK   11  A    between atoms: C27_31  and  C28_33 
REMARK   12  A    between atoms: C28_33  and  C29_34 
REMARK   13  A    between atoms: C29_34  and  C30_35 
ROOT
HETATM    1  C17 UNL     1       2.254   1.870  -1.144  1.00  0.00     0.070 C 
ENDROOT
BRANCH   1   2
HETATM    2  C2  UNL     1       0.839   2.182  -1.587  1.00  0.00     0.036 A 
HETATM    3  C1  UNL     1       0.552   3.552  -2.163  1.00  0.00     0.132 A 
HETATM    4  C6  UNL     1      -0.877   3.908  -2.430  1.00  0.00     0.051 A 
HETATM    5  O6  UNL     1       1.484   4.540  -2.119  1.00  0.00    -0.190 OA
HETATM    6  C5  UNL     1      -1.905   3.025  -2.289  1.00  0.00     0.100 A 
HETATM    7  C4  UNL     1      -1.573   1.698  -1.706  1.00  0.00     0.069 A 
HETATM    8  C3  UNL     1      -0.334   1.271  -1.327  1.00  0.00     0.133 A 
HETATM    9  O3  UNL     1      -0.178   0.032  -0.792  1.00  0.00    -0.190 OA
BRANCH   6  10
HETATM   10  O1  UNL     1      -3.228   3.320  -2.504  1.00  0.00    -0.328 OA
HETATM   11  C7  UNL     1      -3.619   4.671  -2.570  1.00  0.00     0.181 C 
ENDBRANCH   6  10
BRANCH   7  12
HETATM   12  C8  UNL     1      -2.741   0.761  -1.448  1.00  0.00     0.117 C 
HETATM   13  O2  UNL     1      -3.542   0.911  -0.418  1.00  0.00    -0.194 OA
BRANCH  12  14
HETATM   14  C9  UNL     1      -2.858  -0.407  -2.411  1.00  0.00     0.080 C 
BRANCH  14  15
HETATM   15  C10 UNL     1      -2.898  -1.807  -1.860  1.00  0.00    -0.019 C 
BRANCH  15  16
HETATM   16  C11 UNL     1      -1.682  -2.678  -1.721  1.00  0.00    -0.008 C 
HETATM   17  C12 UNL     1      -0.543  -2.418  -2.420  1.00  0.00    -0.026 C 
HETATM   18  C13 UNL     1       0.614  -3.368  -2.355  1.00  0.00     0.031 C 
HETATM   19  C14 UNL     1       0.606  -4.370  -1.232  1.00  0.00     0.031 C 
HETATM   20  C15 UNL     1      -0.737  -4.731  -0.684  1.00  0.00    -0.026 C 
HETATM   21  C16 UNL     1      -1.797  -3.918  -0.921  1.00  0.00    -0.005 C 
ENDBRANCH  15  16
ENDBRANCH  14  15
ENDBRANCH  12  14
ENDBRANCH   7  12
ENDBRANCH   1   2
BRANCH   1  22
HETATM   22  C18 UNL     1       2.675   2.700   0.050  1.00  0.00    -0.014 A 
HETATM   23  C19 UNL     1       4.018   3.054   0.221  1.00  0.00    -0.002 A 
HETATM   24  C20 UNL     1       4.436   3.784   1.334  1.00  0.00     0.027 A 
HETATM   25  C21 UNL     1       3.530   4.186   2.320  1.00  0.00     0.131 A 
HETATM   26  C22 UNL     1       2.193   3.812   2.158  1.00  0.00     0.027 A 
HETATM   27  O4  UNL     1       3.932   4.891   3.409  1.00  0.00    -0.190 OA
HETATM   28  C23 UNL     1       1.770   3.075   1.050  1.00  0.00    -0.002 A 
ENDBRANCH   1  22
BRANCH   1  29
HETATM   29  C24 UNL     1       2.531   0.399  -0.955  1.00  0.00    -0.022 C 
HETATM   30  C25 UNL     1       2.881  -0.181   0.204  1.00  0.00    -0.027 C 
BRANCH  30  31
HETATM   31  C26 UNL     1       3.129  -1.659   0.364  1.00  0.00     0.059 C 
BRANCH  31  32
HETATM   32  C27 UNL     1       2.366  -2.263   1.546  1.00  0.00     0.157 C 
HETATM   33  O5  UNL     1       2.882  -1.750   2.752  1.00  0.00    -0.223 OA
BRANCH  32  34
HETATM   34  C28 UNL     1       0.861  -2.000   1.489  1.00  0.00     0.038 C 
BRANCH  34  35
HETATM   35  C29 UNL     1       0.070  -2.790   2.543  1.00  0.00     0.029 C 
BRANCH  35  36
HETATM   36  C30 UNL     1      -1.430  -2.777   2.330  1.00  0.00    -0.022 A 
HETATM   37  C31 UNL     1      -2.171  -3.958   2.467  1.00  0.00    -0.004 A 
HETATM   38  C32 UNL     1      -3.553  -3.977   2.270  1.00  0.00    -0.000 A 
HETATM   39  C33 UNL     1      -4.224  -2.801   1.935  1.00  0.00    -0.000 A 
HETATM   40  C34 UNL     1      -3.502  -1.614   1.804  1.00  0.00    -0.000 A 
HETATM   41  C35 UNL     1      -2.119  -1.604   1.994  1.00  0.00    -0.004 A 
ENDBRANCH  35  36
ENDBRANCH  34  35
ENDBRANCH  32  34
ENDBRANCH  31  32
ENDBRANCH  30  31
ENDBRANCH   1  29
TORSDOF 13
