REMARK  2 active torsions:
REMARK  status: ('A' for Active; 'I' for Inactive)
REMARK    1  A    between atoms: C2_2  and  O3_26 
REMARK    2  A    between atoms: C16_18  and  C19_22 
ROOT
HETATM    1  C1  UNL     1      -4.572   0.121  -0.895  1.00  0.00     0.024 A 
HETATM    2  C2  UNL     1      -4.542  -1.311  -0.898  1.00  0.00     0.096 A 
HETATM    3  C3  UNL     1      -3.300  -1.926  -0.933  1.00  0.00     0.041 A 
HETATM    4  C4  UNL     1      -2.126  -1.131  -0.968  1.00  0.00     0.061 A 
HETATM    5  C5  UNL     1      -2.189   0.268  -0.958  1.00  0.00     0.013 A 
HETATM    6  C6  UNL     1      -3.446   0.915  -0.916  1.00  0.00     0.003 A 
HETATM    7  C7  UNL     1      -0.856   0.775  -1.016  1.00  0.00    -0.005 A 
HETATM    8  C8  UNL     1       0.014  -0.286  -1.083  1.00  0.00     0.064 A 
HETATM    9  N1  UNL     1      -0.779  -1.419  -1.029  1.00  0.00    -0.328 N 
HETATM   10  C9  UNL     1      -0.263  -2.789  -1.048  1.00  0.00     0.130 C 
HETATM   11  C10 UNL     1       1.499  -0.058  -1.165  1.00  0.00     0.257 C 
HETATM   12  N2  UNL     1       1.712   1.260  -1.754  1.00  0.00     0.141 N 
HETATM   13  C11 UNL     1       1.146   2.298  -0.895  1.00  0.00     0.227 C 
HETATM   14  C12 UNL     1      -0.399   2.202  -1.022  1.00  0.00     0.061 C 
HETATM   15  C13 UNL     1       1.602   2.254   0.585  1.00  0.00     0.066 C 
HETATM   16  C14 UNL     1       1.522   0.848   1.204  1.00  0.00     0.034 C 
HETATM   17  C15 UNL     1       2.108  -0.196   0.244  1.00  0.00     0.044 C 
HETATM   18  C16 UNL     1       2.133   0.880   2.588  1.00  0.00     0.037 C 
HETATM   19  C17 UNL     1       2.881   1.917   3.002  1.00  0.00     0.115 C 
HETATM   20  O1  UNL     1       3.240   2.974   2.216  1.00  0.00    -0.329 OA
HETATM   21  C18 UNL     1       2.993   2.831   0.843  1.00  0.00     0.151 C 
HETATM   22  C21 UNL     1       3.080   1.480  -2.186  1.00  0.00     0.286 C 
ENDROOT
BRANCH  18  23
HETATM   23  C19 UNL     1       1.815  -0.170   3.619  1.00  0.00     0.172 C 
HETATM   24  C20 UNL     1       2.161  -1.615   3.322  1.00  0.00     0.077 C 
HETATM   25  O2  UNL     1       1.319   0.142   4.691  1.00  0.00    -0.292 OA
ENDBRANCH  18  23
BRANCH   2  26
HETATM   26  O3  UNL     1      -5.745  -1.973  -0.891  1.00  0.00    -0.328 OA
HETATM   27  C22 UNL     1      -5.739  -3.380  -0.972  1.00  0.00     0.181 C 
ENDBRANCH   2  26
TORSDOF 2
