REMARK  1 active torsions:
REMARK  status: ('A' for Active; 'I' for Inactive)
REMARK    1  A    between atoms: C16_18  and  C20_23 
ROOT
HETATM    1  C1  UNL     1      -5.014  -0.330  -1.169  1.00  0.00     0.000 A 
HETATM    2  C2  UNL     1      -4.957  -1.753  -1.137  1.00  0.00     0.002 A 
HETATM    3  C3  UNL     1      -3.753  -2.425  -1.131  1.00  0.00     0.017 A 
HETATM    4  C4  UNL     1      -2.570  -1.642  -1.162  1.00  0.00     0.059 A 
HETATM    5  C5  UNL     1      -2.623  -0.242  -1.192  1.00  0.00     0.013 A 
HETATM    6  C6  UNL     1      -3.868   0.436  -1.195  1.00  0.00     0.001 A 
HETATM    7  C7  UNL     1      -1.281   0.245  -1.210  1.00  0.00    -0.005 A 
HETATM    8  C8  UNL     1      -0.415  -0.823  -1.204  1.00  0.00     0.064 A 
HETATM    9  N1  UNL     1      -1.227  -1.944  -1.165  1.00  0.00    -0.328 N 
HETATM   10  C9  UNL     1      -0.733  -3.322  -1.124  1.00  0.00     0.130 C 
HETATM   11  C10 UNL     1       1.077  -0.635  -1.163  1.00  0.00     0.257 C 
HETATM   12  N2  UNL     1       1.444   0.681  -1.681  1.00  0.00     0.141 N 
HETATM   13  C11 UNL     1       0.712   1.737  -0.984  1.00  0.00     0.227 C 
HETATM   14  C12 UNL     1      -0.813   1.665  -1.220  1.00  0.00     0.061 C 
HETATM   15  C13 UNL     1       1.089   1.739   0.518  1.00  0.00     0.066 C 
HETATM   16  C14 UNL     1       0.943   0.357   1.175  1.00  0.00     0.034 C 
HETATM   17  C15 UNL     1       1.549  -0.750   0.296  1.00  0.00     0.044 C 
HETATM   18  C16 UNL     1       1.563   0.351   2.558  1.00  0.00     0.038 C 
HETATM   19  C17 UNL     1       2.431   1.325   2.921  1.00  0.00     0.071 C 
HETATM   20  O1  UNL     1       2.833   2.339   2.089  1.00  0.00    -0.335 OA
HETATM   21  C18 UNL     1       2.521   2.225   0.728  1.00  0.00     0.151 C 
HETATM   22  C19 UNL     1       3.071   1.460   4.290  1.00  0.00     0.058 C 
HETATM   23  C21 UNL     1       1.299   0.751  -3.128  1.00  0.00     0.286 C 
ENDROOT
BRANCH  18  24
HETATM   24  C20 UNL     1       1.140  -0.742   3.473  1.00  0.00     0.232 C 
HETATM   25  O2  UNL     1       0.337  -1.604   3.145  1.00  0.00    -0.283 OA
ENDBRANCH  18  24
TORSDOF 1
