REMARK  3 active torsions:
REMARK  status: ('A' for Active; 'I' for Inactive)
REMARK    1  A    between atoms: C14_17  and  C17_21 
REMARK    2  A    between atoms: C15_18  and  C16_19 
REMARK    3  A    between atoms: C17_21  and  C18_22 
ROOT
HETATM    1  C1  UNL     1      -3.014  -4.031  -0.434  1.00  0.00     0.002 A 
HETATM    2  C2  UNL     1      -1.735  -4.548  -0.213  1.00  0.00     0.017 A 
HETATM    3  C3  UNL     1      -0.659  -3.657  -0.225  1.00  0.00     0.059 A 
HETATM    4  C4  UNL     1      -0.827  -2.278  -0.419  1.00  0.00     0.004 A 
HETATM    5  C5  UNL     1      -2.105  -1.788  -0.691  1.00  0.00    -0.002 A 
HETATM    6  C6  UNL     1      -3.194  -2.666  -0.683  1.00  0.00    -0.000 A 
HETATM    7  C7  UNL     1       0.481  -1.508  -0.385  1.00  0.00     0.126 A 
HETATM    8  C8  UNL     1       1.448  -2.692  -0.200  1.00  0.00     0.242 A 
HETATM    9  N1  UNL     1       0.720  -3.838  -0.087  1.00  0.00    -0.297 N 
HETATM   10  C9  UNL     1       1.373  -5.132   0.125  1.00  0.00     0.133 C 
HETATM   11  O1  UNL     1       2.673  -2.613  -0.142  1.00  0.00    -0.272 OA
HETATM   12  C10 UNL     1       0.833  -0.747  -1.678  1.00  0.00     0.051 C 
HETATM   13  C11 UNL     1       1.248   0.641  -1.152  1.00  0.00     0.260 C 
HETATM   14  N2  UNL     1       1.819   0.285   0.149  1.00  0.00     0.336 N 
HETATM   15  C12 UNL     1       0.773  -0.524   0.772  1.00  0.00     0.269 C 
HETATM   16  C13 UNL     1      -0.364   0.415   1.220  1.00  0.00     0.037 C 
HETATM   17  C14 UNL     1      -0.308   1.793   0.521  1.00  0.00     0.009 C 
HETATM   18  C15 UNL     1       0.016   1.562  -0.971  1.00  0.00     0.067 C 
ENDROOT
BRANCH  18  19
HETATM   19  C16 UNL     1       0.108   2.845  -1.797  1.00  0.00     0.184 C 
HETATM   20  O2  UNL     1       0.105   2.522  -3.175  1.00  0.00    -0.221 OA
ENDBRANCH  18  19
BRANCH  17  21
HETATM   21  C17 UNL     1       0.663   2.767   1.232  1.00  0.00     0.033 C 
BRANCH  21  22
HETATM   22  C18 UNL     1      -0.023   4.020   1.780  1.00  0.00     0.152 C 
HETATM   23  C19 UNL     1       0.974   5.015   2.367  1.00  0.00     0.036 C 
HETATM   24  O3  UNL     1      -0.934   3.648   2.789  1.00  0.00    -0.224 OA
ENDBRANCH  21  22
ENDBRANCH  17  21
TORSDOF 3
