REMARK  0 active torsions:
REMARK  status: ('A' for Active; 'I' for Inactive)
ROOT
HETATM    1  C1  UNL     1      -5.426  -0.458  -0.169  1.00  0.00     0.000 A 
HETATM    2  C2  UNL     1      -5.344  -1.878  -0.096  1.00  0.00     0.002 A 
HETATM    3  C3  UNL     1      -4.128  -2.528  -0.088  1.00  0.00     0.017 A 
HETATM    4  C4  UNL     1      -2.960  -1.726  -0.166  1.00  0.00     0.059 A 
HETATM    5  C5  UNL     1      -3.036  -0.328  -0.238  1.00  0.00     0.013 A 
HETATM    6  C6  UNL     1      -4.295   0.327  -0.237  1.00  0.00     0.001 A 
HETATM    7  C7  UNL     1      -1.706   0.186  -0.323  1.00  0.00    -0.005 A 
HETATM    8  C8  UNL     1      -0.834  -0.876  -0.319  1.00  0.00     0.067 A 
HETATM    9  N1  UNL     1      -1.613  -2.010  -0.207  1.00  0.00    -0.328 N 
HETATM   10  C9  UNL     1      -1.083  -3.373  -0.139  1.00  0.00     0.130 C 
HETATM   11  C10 UNL     1       0.636  -0.624  -0.434  1.00  0.00     0.294 C 
HETATM   12  N2  UNL     1       0.781   0.528  -1.322  1.00  0.00     0.341 N 
HETATM   13  C11 UNL     1       0.260   1.749  -0.709  1.00  0.00     0.264 C 
HETATM   14  C12 UNL     1      -1.263   1.615  -0.456  1.00  0.00     0.064 C 
HETATM   15  C13 UNL     1       1.133   2.114   0.522  1.00  0.00     0.069 C 
HETATM   16  C14 UNL     1       2.059   0.962   0.979  1.00  0.00     0.034 C 
HETATM   17  C15 UNL     1       1.222  -0.329   0.958  1.00  0.00     0.047 C 
HETATM   18  C16 UNL     1       3.311   0.912   0.128  1.00  0.00     0.037 C 
HETATM   19  C17 UNL     1       3.479   1.968  -0.913  1.00  0.00     0.291 C 
HETATM   20  O1  UNL     1       2.835   3.167  -0.846  1.00  0.00    -0.299 OA
HETATM   21  C18 UNL     1       1.980   3.359   0.248  1.00  0.00     0.154 C 
HETATM   22  O2  UNL     1       4.232   1.757  -1.862  1.00  0.00    -0.260 OA
HETATM   23  C19 UNL     1       4.311   0.015   0.285  1.00  0.00    -0.025 C 
HETATM   24  C20 UNL     1       4.415  -1.056   1.338  1.00  0.00     0.030 C 
ENDROOT
TORSDOF 0
