REMARK  2 active torsions:
REMARK  status: ('A' for Active; 'I' for Inactive)
REMARK    1  A    between atoms: C2_2  and  O3_26 
REMARK    2  A    between atoms: C16_18  and  C20_23 
ROOT
HETATM    1  C1  UNL     1      -4.658  -0.078  -0.956  1.00  0.00     0.024 A 
HETATM    2  C2  UNL     1      -4.630  -1.510  -0.968  1.00  0.00     0.096 A 
HETATM    3  C3  UNL     1      -3.389  -2.123  -1.020  1.00  0.00     0.041 A 
HETATM    4  C4  UNL     1      -2.215  -1.327  -1.058  1.00  0.00     0.061 A 
HETATM    5  C5  UNL     1      -2.275   0.071  -1.042  1.00  0.00     0.013 A 
HETATM    6  C6  UNL     1      -3.532   0.718  -0.985  1.00  0.00     0.003 A 
HETATM    7  C7  UNL     1      -0.941   0.576  -1.107  1.00  0.00    -0.005 A 
HETATM    8  C8  UNL     1      -0.075  -0.490  -1.178  1.00  0.00     0.064 A 
HETATM    9  N1  UNL     1      -0.871  -1.620  -1.127  1.00  0.00    -0.328 N 
HETATM   10  C9  UNL     1      -0.362  -2.993  -1.161  1.00  0.00     0.130 C 
HETATM   11  C10 UNL     1       1.411  -0.272  -1.251  1.00  0.00     0.257 C 
HETATM   12  N2  UNL     1       1.640   1.048  -1.833  1.00  0.00     0.141 N 
HETATM   13  C11 UNL     1       1.070   2.087  -0.976  1.00  0.00     0.227 C 
HETATM   14  C12 UNL     1      -0.475   2.000  -1.112  1.00  0.00     0.061 C 
HETATM   15  C13 UNL     1       1.517   2.045   0.506  1.00  0.00     0.066 C 
HETATM   16  C14 UNL     1       1.422   0.639   1.115  1.00  0.00     0.034 C 
HETATM   17  C15 UNL     1       2.006  -0.414   0.162  1.00  0.00     0.044 C 
HETATM   18  C16 UNL     1       2.057   0.601   2.490  1.00  0.00     0.038 C 
HETATM   19  C17 UNL     1       2.841   1.622   2.916  1.00  0.00     0.071 C 
HETATM   20  O1  UNL     1       3.162   2.712   2.150  1.00  0.00    -0.335 OA
HETATM   21  C18 UNL     1       2.909   2.608   0.775  1.00  0.00     0.151 C 
HETATM   22  C19 UNL     1       3.436   1.681   4.307  1.00  0.00     0.058 C 
HETATM   23  C21 UNL     1       3.016   1.255  -2.245  1.00  0.00     0.286 C 
ENDROOT
BRANCH   2  24
HETATM   24  O3  UNL     1      -5.831  -2.176  -0.952  1.00  0.00    -0.328 OA
HETATM   25  C22 UNL     1      -5.822  -3.581  -1.048  1.00  0.00     0.181 C 
ENDBRANCH   2  24
BRANCH  18  26
HETATM   26  C20 UNL     1       1.718  -0.557   3.353  1.00  0.00     0.232 C 
HETATM   27  O2  UNL     1       2.019  -0.705   4.528  1.00  0.00    -0.283 OA
ENDBRANCH  18  26
TORSDOF 2
