REMARK  1 active torsions:
REMARK  status: ('A' for Active; 'I' for Inactive)
REMARK    1  A    between atoms: C14_15  and  O2_18 
ROOT
HETATM    1  C1  UNL     1      -3.070  -0.379   0.818  1.00  0.00     0.119 A 
HETATM    2  C2  UNL     1      -3.103  -1.766   0.798  1.00  0.00     0.119 A 
HETATM    3  C3  UNL     1      -1.929  -2.505   0.761  1.00  0.00     0.024 A 
HETATM    4  C4  UNL     1      -0.708  -1.812   0.731  1.00  0.00     0.009 A 
HETATM    5  C5  UNL     1      -0.661  -0.406   0.735  1.00  0.00    -0.018 A 
HETATM    6  C6  UNL     1      -1.866   0.316   0.807  1.00  0.00     0.022 A 
HETATM    7  C7  UNL     1       0.675   0.322   0.675  1.00  0.00     0.090 C 
HETATM    8  C8  UNL     1       1.901  -0.599   0.452  1.00  0.00     0.231 C 
HETATM    9  N1  UNL     1       1.608  -1.931  -0.037  1.00  0.00     0.140 N 
HETATM   10  C9  UNL     1       0.568  -2.611   0.699  1.00  0.00     0.276 C 
HETATM   11  C10 UNL     1       1.374  -1.805  -1.462  1.00  0.00     0.251 C 
HETATM   12  C11 UNL     1       2.437  -0.792  -1.924  1.00  0.00     0.042 C 
HETATM   13  C12 UNL     1       2.897  -0.117  -0.617  1.00  0.00     0.058 C 
HETATM   14  C13 UNL     1       3.014   1.374  -0.701  1.00  0.00    -0.002 C 
HETATM   15  C14 UNL     1       1.968   2.194  -0.517  1.00  0.00     0.098 C 
HETATM   16  C15 UNL     1       0.623   1.560  -0.235  1.00  0.00     0.202 C 
HETATM   17  O1  UNL     1      -0.021   1.219  -1.448  1.00  0.00    -0.216 OA
HETATM   18  O3  UNL     1      -4.417  -2.192   0.831  1.00  0.00    -0.300 OA
HETATM   19  C17 UNL     1      -5.248  -1.024   0.860  1.00  0.00     0.304 A 
HETATM   20  O4  UNL     1      -4.364   0.104   0.865  1.00  0.00    -0.300 OA
ENDROOT
BRANCH  15  21
HETATM   21  O2  UNL     1       2.126   3.553  -0.622  1.00  0.00    -0.330 OA
HETATM   22  C16 UNL     1       1.503   4.348   0.360  1.00  0.00     0.181 C 
ENDBRANCH  15  21
TORSDOF 1
