REMARK  1 active torsions:
REMARK  status: ('A' for Active; 'I' for Inactive)
REMARK    1  A    between atoms: C3_3  and  C19_23 
ROOT
HETATM    1  C1  UNL     1       2.824  -1.549  -1.645  1.00  0.00     0.001 C 
HETATM    2  C2  UNL     1       3.688  -0.483  -0.959  1.00  0.00     0.010 C 
HETATM    3  C3  UNL     1       2.931   0.837  -0.687  1.00  0.00     0.079 C 
HETATM    4  C4  UNL     1       1.588   0.512   0.025  1.00  0.00     0.012 C 
HETATM    5  C5  UNL     1       0.650  -0.558  -0.612  1.00  0.00     0.001 C 
HETATM    6  C6  UNL     1       1.524  -1.819  -0.867  1.00  0.00     0.000 C 
HETATM    7  C7  UNL     1      -0.497  -0.893   0.415  1.00  0.00     0.014 C 
HETATM    8  C8  UNL     1      -1.194   0.312   1.112  1.00  0.00     0.112 C 
HETATM    9  C9  UNL     1      -0.173   1.345   1.598  1.00  0.00     0.161 C 
HETATM   10  C10 UNL     1       0.802   1.750   0.496  1.00  0.00     0.034 C 
HETATM   11  O1  UNL     1      -0.778   2.494   2.148  1.00  0.00    -0.223 OA
HETATM   12  C11 UNL     1      -2.349   0.829   0.237  1.00  0.00     0.168 C 
HETATM   13  C12 UNL     1      -3.405  -0.268   0.363  1.00  0.00     0.086 C 
HETATM   14  C13 UNL     1      -2.945  -1.506  -0.401  1.00  0.00     0.159 C 
HETATM   15  C14 UNL     1      -1.532  -1.971  -0.015  1.00  0.00     0.034 C 
HETATM   16  O2  UNL     1      -3.029  -1.232  -1.778  1.00  0.00    -0.223 OA
HETATM   17  C15 UNL     1      -3.341  -0.528   1.841  1.00  0.00     0.017 C 
HETATM   18  C16 UNL     1      -1.973  -0.244   2.315  1.00  0.00     0.173 C 
HETATM   19  O3  UNL     1      -1.538  -0.441   3.441  1.00  0.00    -0.291 OA
HETATM   20  C17 UNL     1      -4.338  -0.955   2.634  1.00  0.00    -0.002 C 
HETATM   21  O4  UNL     1      -2.893   2.016   0.758  1.00  0.00    -0.223 OA
HETATM   22  C18 UNL     1       0.059  -0.130  -1.970  1.00  0.00     0.000 C 
HETATM   23  C20 UNL     1       2.781   1.646  -1.994  1.00  0.00     0.011 C 
ENDROOT
BRANCH   3  24
HETATM   24  C19 UNL     1       3.794   1.721   0.234  1.00  0.00     0.184 C 
HETATM   25  O5  UNL     1       4.091   2.878   0.051  1.00  0.00    -0.647 OA
HETATM   26  O6  UNL     1       4.208   1.092   1.351  1.00  0.00    -0.647 OA
ENDBRANCH   3  24
TORSDOF 1
