REMARK  1 active torsions:
REMARK  status: ('A' for Active; 'I' for Inactive)
REMARK    1  A    between atoms: C2_2  and  C12_15 
ROOT
HETATM    1  C1  UNL     1      -0.316  -1.661  -0.728  1.00  0.00     0.063 C 
HETATM    2  C2  UNL     1       1.084  -1.999  -0.149  1.00  0.00     0.144 C 
HETATM    3  O1  UNL     1       1.589  -0.825   0.491  1.00  0.00    -0.329 OA
HETATM    4  C3  UNL     1       0.804   0.249   0.134  1.00  0.00     0.092 A 
HETATM    5  C4  UNL     1      -0.308  -0.167  -0.588  1.00  0.00     0.003 A 
HETATM    6  C5  UNL     1      -1.230   0.764  -1.046  1.00  0.00    -0.000 A 
HETATM    7  C6  UNL     1      -1.005   2.125  -0.766  1.00  0.00     0.023 A 
HETATM    8  C7  UNL     1       0.123   2.565  -0.038  1.00  0.00     0.105 A 
HETATM    9  C8  UNL     1       1.031   1.595   0.412  1.00  0.00     0.049 A 
HETATM   10  O2  UNL     1       0.368   3.881   0.245  1.00  0.00    -0.273 OA
HETATM   11  C9  UNL     1      -0.531   4.800  -0.206  1.00  0.00     0.300 A 
HETATM   12  C10 UNL     1      -1.742   4.424  -0.968  1.00  0.00     0.069 A 
HETATM   13  C11 UNL     1      -1.966   3.120  -1.237  1.00  0.00     0.007 A 
HETATM   14  O3  UNL     1      -0.350   5.996   0.019  1.00  0.00    -0.259 OA
ENDROOT
BRANCH   2  15
HETATM   15  C12 UNL     1       1.079  -3.197   0.770  1.00  0.00    -0.017 C 
HETATM   16  C13 UNL     1       1.576  -4.382   0.380  1.00  0.00    -0.007 C 
HETATM   17  C14 UNL     1       0.484  -3.005   2.144  1.00  0.00     0.029 C 
ENDBRANCH   2  15
TORSDOF 1
