REMARK  6 active torsions:
REMARK  status: ('A' for Active; 'I' for Inactive)
REMARK    1  A    between atoms: C1_1  and  O4_20 
REMARK    2  A    between atoms: C4_4  and  C7_7 
REMARK    3  A    between atoms: C7_7  and  C8_8 
REMARK    4  A    between atoms: C8_8  and  C9_9 
REMARK    5  A    between atoms: C11_11  and  O3_18 
REMARK    6  A    between atoms: C13_13  and  O1_15 
ROOT
HETATM    1  C9  UNL     1      -1.309  -0.749   0.172  1.00  0.00    -0.018 A 
HETATM    2  C10 UNL     1      -2.695  -0.638   0.053  1.00  0.00     0.022 A 
HETATM    3  C11 UNL     1      -3.590  -1.683   0.321  1.00  0.00     0.121 A 
HETATM    4  C12 UNL     1      -3.034  -2.910   0.733  1.00  0.00     0.175 A 
HETATM    5  C13 UNL     1      -1.642  -3.076   0.866  1.00  0.00     0.121 A 
HETATM    6  C14 UNL     1      -0.809  -1.986   0.582  1.00  0.00     0.022 A 
HETATM    7  O2  UNL     1      -3.806  -3.993   1.022  1.00  0.00    -0.186 OA
ENDROOT
BRANCH   1   8
HETATM    8  C8  UNL     1      -0.440   0.456  -0.141  1.00  0.00     0.031 C 
BRANCH   8   9
HETATM    9  C7  UNL     1       1.077   0.260   0.002  1.00  0.00     0.031 C 
BRANCH   9  10
HETATM   10  C4  UNL     1       1.964   1.446  -0.315  1.00  0.00    -0.022 A 
HETATM   11  C3  UNL     1       3.353   1.285  -0.263  1.00  0.00    -0.002 A 
HETATM   12  C2  UNL     1       4.218   2.342  -0.546  1.00  0.00     0.024 A 
HETATM   13  C1  UNL     1       3.756   3.620  -0.886  1.00  0.00     0.094 A 
HETATM   14  C6  UNL     1       2.362   3.765  -0.950  1.00  0.00     0.024 A 
HETATM   15  C5  UNL     1       1.488   2.712  -0.667  1.00  0.00    -0.002 A 
BRANCH  13  16
HETATM   16  O4  UNL     1       4.673   4.603  -1.165  1.00  0.00    -0.328 OA
HETATM   17  C17 UNL     1       4.202   5.834  -1.662  1.00  0.00     0.181 C 
ENDBRANCH  13  16
ENDBRANCH   9  10
ENDBRANCH   8   9
ENDBRANCH   1   8
BRANCH   3  18
HETATM   18  O3  UNL     1      -4.925  -1.395   0.152  1.00  0.00    -0.326 OA
HETATM   19  C16 UNL     1      -5.910  -2.369   0.391  1.00  0.00     0.181 C 
ENDBRANCH   3  18
BRANCH   5  20
HETATM   20  O1  UNL     1      -1.184  -4.306   1.275  1.00  0.00    -0.326 OA
HETATM   21  C15 UNL     1       0.201  -4.504   1.436  1.00  0.00     0.181 C 
ENDBRANCH   5  20
TORSDOF 6
