REMARK  2 active torsions:
REMARK  status: ('A' for Active; 'I' for Inactive)
REMARK    1  A    between atoms: C7_7  and  C14_14 
REMARK    2  A    between atoms: C10_10  and  C11_11 
ROOT
HETATM    1  C1  UNL     1      -2.312   1.180   0.792  1.00  0.00     0.022 C 
HETATM    2  C2  UNL     1      -2.358  -0.320   0.924  1.00  0.00    -0.048 C 
HETATM    3  C3  UNL     1      -1.239  -1.055   1.018  1.00  0.00    -0.035 C 
HETATM    4  C4  UNL     1       0.156  -0.483   1.040  1.00  0.00     0.026 C 
HETATM    5  C5  UNL     1       0.191   1.057   1.141  1.00  0.00     0.030 C 
HETATM    6  C6  UNL     1      -0.943   1.681   0.310  1.00  0.00     0.009 C 
HETATM    7  C7  UNL     1       1.560   1.637   0.842  1.00  0.00     0.016 C 
HETATM    8  C8  UNL     1       2.606   0.857   0.499  1.00  0.00    -0.027 C 
HETATM    9  C9  UNL     1       2.521  -0.640   0.388  1.00  0.00     0.026 C 
HETATM   10  C10 UNL     1       1.104  -1.078  -0.031  1.00  0.00     0.009 C 
HETATM   11  C15 UNL     1      -3.732  -0.941   0.978  1.00  0.00     0.026 C 
ENDROOT
BRANCH  10  12
HETATM   12  C11 UNL     1       0.798  -0.758  -1.518  1.00  0.00     0.001 C 
HETATM   13  C12 UNL     1       1.867  -1.315  -2.483  1.00  0.00     0.000 C 
HETATM   14  C13 UNL     1      -0.566  -1.305  -1.982  1.00  0.00     0.000 C 
ENDBRANCH  10  12
BRANCH   7  15
HETATM   15  C14 UNL     1       1.810   3.094   0.991  1.00  0.00     0.230 C 
HETATM   16  O1  UNL     1       0.982   3.883   1.420  1.00  0.00    -0.283 OA
ENDBRANCH   7  15
TORSDOF 2
