REMARK  9 active torsions:
REMARK  status: ('A' for Active; 'I' for Inactive)
REMARK    1  A    between atoms: C3_4  and  C5_6 
REMARK    2  A    between atoms: C5_6  and  C6_8 
REMARK    3  A    between atoms: C6_8  and  C7_9 
REMARK    4  A    between atoms: C8_10  and  C9_11 
REMARK    5  A    between atoms: C11_15  and  O7_26 
REMARK    6  A    between atoms: C17_21  and  C18_22 
REMARK    7  A    between atoms: C18_22  and  O6_24 
REMARK    8  A    between atoms: O7_26  and  C20_27 
REMARK    9  A    between atoms: C21_29  and  C25_36 
ROOT
HETATM    1  C7  UNL     1       0.920   0.486   1.900  1.00  0.00     0.042 C 
HETATM    2  C8  UNL     1       2.055  -0.208   1.081  1.00  0.00     0.206 C 
HETATM    3  C10 UNL     1       1.604  -1.542   0.475  1.00  0.00     0.075 C 
HETATM    4  C11 UNL     1       0.344  -1.430  -0.385  1.00  0.00     0.139 C 
HETATM    5  C12 UNL     1      -0.755  -0.703   0.380  1.00  0.00    -0.017 C 
HETATM    6  C13 UNL     1      -0.305   0.651   0.934  1.00  0.00     0.023 C 
HETATM    7  C14 UNL     1      -1.450   1.501   1.515  1.00  0.00     0.004 C 
HETATM    8  C15 UNL     1      -2.778   1.190   0.824  1.00  0.00     0.005 C 
HETATM    9  C16 UNL     1      -3.102  -0.282   1.098  1.00  0.00     0.031 C 
HETATM   10  C17 UNL     1      -2.016  -1.171   0.540  1.00  0.00     0.035 C 
HETATM   11  O13 UNL     1       2.421   0.659   0.018  1.00  0.00    -0.215 OA
HETATM   12  C26 UNL     1       0.478  -0.395   3.096  1.00  0.00     0.003 C 
ENDROOT
BRANCH   4  13
HETATM   13  O7  UNL     1       0.686  -0.732  -1.565  1.00  0.00    -0.327 OA
BRANCH  13  14
HETATM   14  C20 UNL     1      -0.246  -0.854  -2.612  1.00  0.00     0.270 C 
HETATM   15  O8  UNL     1       0.169  -1.986  -3.344  1.00  0.00    -0.326 OA
HETATM   16  C21 UNL     1      -0.672  -2.272  -4.431  1.00  0.00     0.184 C 
HETATM   17  C22 UNL     1      -0.722  -1.075  -5.379  1.00  0.00     0.215 C 
HETATM   18  C23 UNL     1      -1.117   0.186  -4.636  1.00  0.00     0.220 C 
HETATM   19  O11 UNL     1      -1.665  -1.261  -6.406  1.00  0.00    -0.218 OA
HETATM   20  C24 UNL     1      -0.166   0.378  -3.477  1.00  0.00     0.241 C 
HETATM   21  O10 UNL     1      -1.042   1.291  -5.499  1.00  0.00    -0.218 OA
HETATM   22  O9  UNL     1      -0.562   1.497  -2.725  1.00  0.00    -0.215 OA
BRANCH  16  23
HETATM   23  C25 UNL     1      -0.126  -3.536  -5.085  1.00  0.00     0.214 C 
HETATM   24  O12 UNL     1      -1.068  -4.096  -5.976  1.00  0.00    -0.218 OA
ENDBRANCH  16  23
ENDBRANCH  13  14
ENDBRANCH   4  13
BRANCH   2  25
HETATM   25  C9  UNL     1       3.326  -0.511   1.885  1.00  0.00     0.214 C 
HETATM   26  O3  UNL     1       4.426  -0.133   1.207  1.00  0.00    -0.646 OA
HETATM   27  O4  UNL     1       3.421  -1.043   2.965  1.00  0.00    -0.646 OA
ENDBRANCH   2  25
BRANCH  10  28
HETATM   28  C18 UNL     1      -2.450  -2.526   0.031  1.00  0.00     0.291 C 
HETATM   29  O5  UNL     1      -2.187  -2.802  -1.135  1.00  0.00    -0.260 OA
BRANCH  28  30
HETATM   30  O6  UNL     1      -3.187  -3.437   0.736  1.00  0.00    -0.296 OA
HETATM   31  C19 UNL     1      -3.499  -3.191   2.085  1.00  0.00     0.185 C 
ENDBRANCH  28  30
ENDBRANCH  10  28
BRANCH   1  32
HETATM   32  C6  UNL     1       1.483   1.863   2.380  1.00  0.00     0.041 C 
BRANCH  32  33
HETATM   33  C5  UNL     1       1.220   2.372   3.802  1.00  0.00     0.176 C 
HETATM   34  O2  UNL     1      -0.081   2.913   3.917  1.00  0.00    -0.218 OA
BRANCH  33  35
HETATM   35  C3  UNL     1       2.243   3.406   4.191  1.00  0.00     0.035 A 
HETATM   36  C2  UNL     1       3.521   3.158   4.597  1.00  0.00     0.121 A 
HETATM   37  O1  UNL     1       4.184   4.318   4.862  1.00  0.00    -0.303 OA
HETATM   38  C1  UNL     1       3.299   5.325   4.614  1.00  0.00     0.122 A 
HETATM   39  C4  UNL     1       2.099   4.830   4.200  1.00  0.00     0.027 A 
ENDBRANCH  33  35
ENDBRANCH  32  33
ENDBRANCH   1  32
TORSDOF 9
