REMARK  6 active torsions:
REMARK  status: ('A' for Active; 'I' for Inactive)
REMARK    1  A    between atoms: C3_4  and  C5_6 
REMARK    2  A    between atoms: C12_14  and  O3_16 
REMARK    3  A    between atoms: O3_16  and  C14_17 
REMARK    4  A    between atoms: C15_19  and  C19_26 
REMARK    5  A    between atoms: C20_28  and  C24_33 
REMARK    6  A    between atoms: C24_33  and  O11_35 
ROOT
HETATM    1  C5  UNL     1       4.095  -1.541   1.394  1.00  0.00     0.149 C 
HETATM    2  O2  UNL     1       3.640  -0.819   2.509  1.00  0.00    -0.298 OA
HETATM    3  C6  UNL     1       2.958   0.341   2.365  1.00  0.00     0.300 C 
HETATM    4  C7  UNL     1       2.074   0.542   1.134  1.00  0.00     0.206 C 
HETATM    5  C8  UNL     1       2.336  -0.387  -0.061  1.00  0.00     0.038 C 
HETATM    6  C9  UNL     1       3.810  -0.823   0.083  1.00  0.00     0.038 C 
HETATM    7  C10 UNL     1       1.329  -1.585  -0.032  1.00  0.00     0.009 C 
HETATM    8  C11 UNL     1      -0.202  -1.222  -0.063  1.00  0.00     0.051 C 
HETATM    9  C12 UNL     1      -0.433   0.201   0.537  1.00  0.00     0.125 C 
HETATM   10  C13 UNL     1       0.624   0.487   1.617  1.00  0.00     0.070 C 
HETATM   11  C20 UNL     1      -0.754  -1.480  -1.472  1.00  0.00     0.064 C 
HETATM   12  C21 UNL     1      -0.420  -2.603  -2.140  1.00  0.00     0.110 C 
HETATM   13  C22 UNL     1       0.650  -3.527  -1.635  1.00  0.00     0.054 C 
HETATM   14  C23 UNL     1       1.771  -2.704  -1.007  1.00  0.00     0.007 C 
HETATM   15  O9  UNL     1      -1.077  -3.002  -3.264  1.00  0.00    -0.195 OA
HETATM   16  C26 UNL     1      -0.974  -2.225   0.846  1.00  0.00     0.007 C 
HETATM   17  C27 UNL     1       2.257   0.386  -1.403  1.00  0.00     0.003 C 
HETATM   18  O12 UNL     1       2.342   1.887   0.783  1.00  0.00    -0.216 OA
HETATM   19  O13 UNL     1       2.910   1.203   3.218  1.00  0.00    -0.262 OA
ENDROOT
BRANCH   9  20
HETATM   20  O3  UNL     1      -1.652   0.377   1.229  1.00  0.00    -0.331 OA
BRANCH  20  21
HETATM   21  C14 UNL     1      -2.740   0.914   0.518  1.00  0.00     0.270 C 
HETATM   22  O4  UNL     1      -2.412   2.229   0.132  1.00  0.00    -0.326 OA
HETATM   23  C15 UNL     1      -3.430   2.833  -0.626  1.00  0.00     0.184 C 
HETATM   24  C16 UNL     1      -4.710   2.913   0.202  1.00  0.00     0.215 C 
HETATM   25  C17 UNL     1      -5.108   1.535   0.690  1.00  0.00     0.220 C 
HETATM   26  O7  UNL     1      -5.783   3.428  -0.547  1.00  0.00    -0.218 OA
HETATM   27  C18 UNL     1      -3.938   0.937   1.438  1.00  0.00     0.241 C 
HETATM   28  O6  UNL     1      -6.216   1.637   1.546  1.00  0.00    -0.218 OA
HETATM   29  O5  UNL     1      -4.260  -0.374   1.828  1.00  0.00    -0.215 OA
BRANCH  23  30
HETATM   30  C19 UNL     1      -2.928   4.198  -1.081  1.00  0.00     0.214 C 
HETATM   31  O8  UNL     1      -3.633   4.625  -2.230  1.00  0.00    -0.218 OA
ENDBRANCH  23  30
ENDBRANCH  20  21
ENDBRANCH   9  20
BRANCH  11  32
HETATM   32  C24 UNL     1      -1.991  -0.847  -2.092  1.00  0.00     0.294 C 
HETATM   33  O10 UNL     1      -3.016  -1.502  -1.934  1.00  0.00    -0.259 OA
BRANCH  32  34
HETATM   34  O11 UNL     1      -2.034   0.254  -2.891  1.00  0.00    -0.296 OA
HETATM   35  C25 UNL     1      -0.842   0.930  -3.193  1.00  0.00     0.185 C 
ENDBRANCH  32  34
ENDBRANCH  11  32
BRANCH   1  36
HETATM   36  C3  UNL     1       5.580  -1.782   1.502  1.00  0.00     0.032 A 
HETATM   37  C2  UNL     1       6.280  -2.837   0.997  1.00  0.00     0.121 A 
HETATM   38  O1  UNL     1       7.612  -2.710   1.258  1.00  0.00    -0.303 OA
HETATM   39  C1  UNL     1       7.757  -1.539   1.941  1.00  0.00     0.122 A 
HETATM   40  C4  UNL     1       6.553  -0.927   2.117  1.00  0.00     0.027 A 
ENDBRANCH   1  36
TORSDOF 6
