REMARK  6 active torsions:
REMARK  status: ('A' for Active; 'I' for Inactive)
REMARK    1  A    between atoms: C3_3  and  C21_25 
REMARK    2  A    between atoms: C7_8  and  C15_18 
REMARK    3  A    between atoms: C8_9  and  C9_10 
REMARK    4  A    between atoms: C22_26  and  C23_27 
REMARK    5  A    between atoms: C29_34  and  C37_45 
REMARK    6  A    between atoms: C30_35  and  C31_37 
ROOT
HETATM    1  C1  UNL     1      -1.294   2.838  -0.061  1.00  0.00     0.102 A 
HETATM    2  C2  UNL     1      -1.227   1.444  -0.013  1.00  0.00     0.025 A 
HETATM    3  C3  UNL     1       0.015   0.763  -0.070  1.00  0.00     0.000 A 
HETATM    4  C4  UNL     1       1.145   1.574  -0.115  1.00  0.00     0.007 A 
HETATM    5  C5  UNL     1       1.060   2.979  -0.169  1.00  0.00     0.093 A 
HETATM    6  C6  UNL     1      -0.150   3.651  -0.155  1.00  0.00     0.049 A 
HETATM    7  O1  UNL     1       2.312   3.560  -0.199  1.00  0.00    -0.329 OA
HETATM    8  C7  UNL     1       3.308   2.560   0.020  1.00  0.00     0.152 C 
HETATM    9  C8  UNL     1       2.603   1.184  -0.082  1.00  0.00     0.079 C 
HETATM   10  C29 UNL     1      -2.606   1.009   0.055  1.00  0.00     0.025 A 
HETATM   11  C30 UNL     1      -3.386   2.135   0.060  1.00  0.00     0.100 A 
HETATM   12  O6  UNL     1      -2.592   3.265  -0.013  1.00  0.00    -0.307 OA
ENDROOT
BRANCH   3  13
HETATM   13  C21 UNL     1       0.091  -0.712   0.034  1.00  0.00    -0.000 C 
HETATM   14  C22 UNL     1       0.869  -1.492  -0.740  1.00  0.00    -0.000 C 
BRANCH  14  15
HETATM   15  C23 UNL     1       0.982  -2.953  -0.547  1.00  0.00     0.000 A 
HETATM   16  C24 UNL     1       2.194  -3.598  -0.827  1.00  0.00     0.002 A 
HETATM   17  C25 UNL     1       2.340  -4.968  -0.605  1.00  0.00     0.027 A 
HETATM   18  C26 UNL     1       1.268  -5.750  -0.164  1.00  0.00     0.131 A 
HETATM   19  C27 UNL     1       0.041  -5.113   0.043  1.00  0.00     0.027 A 
HETATM   20  O5  UNL     1       1.416  -7.086   0.034  1.00  0.00    -0.190 OA
HETATM   21  C28 UNL     1      -0.107  -3.737  -0.144  1.00  0.00     0.002 A 
ENDBRANCH  14  15
ENDBRANCH   3  13
BRANCH  10  22
HETATM   22  C37 UNL     1      -3.088  -0.410   0.052  1.00  0.00     0.002 A 
HETATM   23  C38 UNL     1      -3.068  -1.173   1.220  1.00  0.00     0.002 A 
HETATM   24  C39 UNL     1      -3.636  -2.450   1.234  1.00  0.00     0.027 A 
HETATM   25  C40 UNL     1      -4.242  -2.990   0.096  1.00  0.00     0.131 A 
HETATM   26  C41 UNL     1      -4.238  -2.221  -1.072  1.00  0.00     0.027 A 
HETATM   27  O9  UNL     1      -4.835  -4.215   0.120  1.00  0.00    -0.190 OA
HETATM   28  C42 UNL     1      -3.664  -0.948  -1.102  1.00  0.00     0.002 A 
ENDBRANCH  10  22
BRANCH   9  29
HETATM   29  C9  UNL     1       2.909   0.259   1.071  1.00  0.00    -0.011 A 
HETATM   30  C10 UNL     1       3.602  -0.930   0.841  1.00  0.00     0.024 A 
HETATM   31  C11 UNL     1       3.844  -1.858   1.857  1.00  0.00     0.133 A 
HETATM   32  C12 UNL     1       3.394  -1.548   3.142  1.00  0.00     0.055 A 
HETATM   33  O3  UNL     1       4.439  -3.045   1.570  1.00  0.00    -0.190 OA
HETATM   34  C13 UNL     1       2.733  -0.348   3.431  1.00  0.00     0.133 A 
HETATM   35  C14 UNL     1       2.490   0.537   2.377  1.00  0.00     0.024 A 
HETATM   36  O2  UNL     1       2.312  -0.080   4.696  1.00  0.00    -0.190 OA
ENDBRANCH   9  29
BRANCH  11  37
HETATM   37  C31 UNL     1      -4.854   2.262   0.087  1.00  0.00     0.027 A 
HETATM   38  C32 UNL     1      -5.722   1.202   0.370  1.00  0.00     0.029 A 
HETATM   39  C33 UNL     1      -7.115   1.346   0.360  1.00  0.00     0.133 A 
HETATM   40  C34 UNL     1      -7.640   2.610   0.097  1.00  0.00     0.055 A 
HETATM   41  O8  UNL     1      -7.921   0.283   0.623  1.00  0.00    -0.190 OA
HETATM   42  C35 UNL     1      -6.820   3.715  -0.160  1.00  0.00     0.133 A 
HETATM   43  C36 UNL     1      -5.438   3.518  -0.160  1.00  0.00     0.029 A 
HETATM   44  O7  UNL     1      -7.367   4.936  -0.400  1.00  0.00    -0.190 OA
ENDBRANCH  11  37
BRANCH   8  45
HETATM   45  C15 UNL     1       4.458   2.684  -0.955  1.00  0.00     0.006 A 
HETATM   46  C16 UNL     1       5.788   2.682  -0.521  1.00  0.00     0.000 A 
HETATM   47  C17 UNL     1       6.841   2.773  -1.435  1.00  0.00     0.027 A 
HETATM   48  C18 UNL     1       6.607   2.862  -2.810  1.00  0.00     0.131 A 
HETATM   49  C19 UNL     1       5.277   2.863  -3.239  1.00  0.00     0.027 A 
HETATM   50  O4  UNL     1       7.628   2.939  -3.705  1.00  0.00    -0.190 OA
HETATM   51  C20 UNL     1       4.220   2.778  -2.331  1.00  0.00     0.000 A 
ENDBRANCH   8  45
TORSDOF 6
