REMARK  2 active torsions:
REMARK  status: ('A' for Active; 'I' for Inactive)
REMARK    1  A    between atoms: C1_1  and  O3_22 
REMARK    2  A    between atoms: C2_2  and  O2_20 
ROOT
HETATM    1  C1  UNL     1      -1.448   1.989  -0.313  1.00  0.00     0.116 A 
HETATM    2  C2  UNL     1      -1.452   0.636  -0.446  1.00  0.00     0.112 A 
HETATM    3  C3  UNL     1      -0.301  -0.026  -0.217  1.00  0.00     0.003 A 
HETATM    4  C4  UNL     1       0.815   0.620   0.125  1.00  0.00     0.003 A 
HETATM    5  C5  UNL     1       0.836   1.938   0.325  1.00  0.00    -0.021 A 
HETATM    6  C6  UNL     1      -0.310   2.598   0.091  1.00  0.00     0.022 A 
HETATM    7  C7  UNL     1       2.104   2.585   0.820  1.00  0.00     0.061 C 
HETATM    8  C8  UNL     1       3.297   1.605   0.836  1.00  0.00     0.255 C 
HETATM    9  N1  UNL     1       2.953   0.240   1.238  1.00  0.00     0.141 N 
HETATM   10  C9  UNL     1       1.997  -0.284   0.274  1.00  0.00     0.242 C 
HETATM   11  C10 UNL     1       1.286  -1.631   0.510  1.00  0.00     0.046 C 
HETATM   12  C11 UNL     1      -0.040  -1.520  -0.300  1.00  0.00     0.042 C 
HETATM   13  C12 UNL     1       0.096  -1.952  -1.767  1.00  0.00     0.016 C 
HETATM   14  C13 UNL     1       0.174  -3.477  -1.895  1.00  0.00     0.070 C 
HETATM   15  C14 UNL     1      -0.915  -4.194  -1.114  1.00  0.00     0.173 C 
HETATM   16  C15 UNL     1      -1.472  -3.574  -0.045  1.00  0.00     0.033 C 
HETATM   17  C16 UNL     1      -1.110  -2.349   0.365  1.00  0.00    -0.020 C 
HETATM   18  O1  UNL     1      -1.262  -5.307  -1.440  1.00  0.00    -0.291 OA
HETATM   19  C17 UNL     1       2.501   0.185   2.619  1.00  0.00     0.286 C 
ENDROOT
BRANCH   2  20
HETATM   20  O2  UNL     1      -2.558  -0.070  -0.854  1.00  0.00    -0.326 OA
HETATM   21  C18 UNL     1      -3.685  -0.010  -0.007  1.00  0.00     0.181 C 
ENDBRANCH   2  20
BRANCH   1  22
HETATM   22  O3  UNL     1      -2.613   2.670  -0.579  1.00  0.00    -0.326 OA
HETATM   23  C19 UNL     1      -2.641   4.074  -0.469  1.00  0.00     0.181 C 
ENDBRANCH   1  22
TORSDOF 2
