REMARK  1 active torsions:
REMARK  status: ('A' for Active; 'I' for Inactive)
REMARK    1  A    between atoms: C3_3  and  C30_32 
ROOT
HETATM    1  C1  UNL     1      -4.380   0.380  -1.931  1.00  0.00     0.033 C 
HETATM    2  C2  UNL     1      -5.359  -0.646  -1.383  1.00  0.00     0.154 C 
HETATM    3  C3  UNL     1      -4.626  -1.877  -0.813  1.00  0.00     0.059 C 
HETATM    4  C4  UNL     1      -3.165  -1.543  -0.331  1.00  0.00     0.005 C 
HETATM    5  C5  UNL     1      -2.858  -0.079   0.137  1.00  0.00     0.000 C 
HETATM    6  C6  UNL     1      -3.538   0.971  -0.797  1.00  0.00     0.003 C 
HETATM    7  C7  UNL     1      -1.310   0.221   0.143  1.00  0.00     0.000 C 
HETATM    8  C8  UNL     1      -0.318  -0.951   0.412  1.00  0.00     0.003 C 
HETATM    9  C9  UNL     1      -0.691  -2.172  -0.478  1.00  0.00     0.000 C 
HETATM   10  C10 UNL     1      -2.016  -2.022  -1.244  1.00  0.00     0.000 C 
HETATM   11  C11 UNL     1       1.162  -0.446   0.083  1.00  0.00     0.030 C 
HETATM   12  C12 UNL     1       1.556   0.790   0.953  1.00  0.00     0.093 C 
HETATM   13  C13 UNL     1       0.528   1.920   0.798  1.00  0.00     0.027 C 
HETATM   14  C14 UNL     1      -0.927   1.469   0.968  1.00  0.00     0.002 C 
HETATM   15  C15 UNL     1       2.979   1.352   0.801  1.00  0.00     0.034 C 
HETATM   16  C16 UNL     1       3.763   0.205   1.430  1.00  0.00     0.081 C 
HETATM   17  C17 UNL     1       3.622  -1.034   0.547  1.00  0.00     0.152 C 
HETATM   18  C18 UNL     1       2.215  -1.565   0.316  1.00  0.00     0.067 C 
HETATM   19  O1  UNL     1       4.577  -1.618   0.086  1.00  0.00    -0.296 OA
HETATM   20  C19 UNL     1       5.218   0.615   1.686  1.00  0.00     0.009 C 
HETATM   21  C20 UNL     1       5.882   1.205   0.428  1.00  0.00     0.001 C 
HETATM   22  C21 UNL     1       5.074   2.338  -0.248  1.00  0.00     0.000 C 
HETATM   23  C22 UNL     1       3.617   1.863  -0.490  1.00  0.00     0.003 C 
HETATM   24  C23 UNL     1       5.719   2.671  -1.614  1.00  0.00     0.000 C 
HETATM   25  C24 UNL     1       5.130   3.626   0.603  1.00  0.00     0.000 C 
HETATM   26  C25 UNL     1       2.895   0.032   2.675  1.00  0.00     0.149 C 
HETATM   27  O2  UNL     1       1.580   0.378   2.296  1.00  0.00    -0.359 OA
HETATM   28  C26 UNL     1       1.283  -0.081  -1.431  1.00  0.00     0.003 C 
HETATM   29  C27 UNL     1      -0.522  -1.457   1.872  1.00  0.00     0.000 C 
HETATM   30  C28 UNL     1      -3.454   0.143   1.554  1.00  0.00     0.000 C 
HETATM   31  C29 UNL     1      -5.437  -2.489   0.367  1.00  0.00     0.005 C 
HETATM   32  O4  UNL     1      -6.178  -0.021  -0.422  1.00  0.00    -0.223 OA
ENDROOT
BRANCH   3  33
HETATM   33  C30 UNL     1      -4.706  -3.000  -1.879  1.00  0.00     0.185 C 
HETATM   34  O3  UNL     1      -4.220  -2.583  -3.139  1.00  0.00    -0.221 OA
ENDBRANCH   3  33
TORSDOF 1
