REMARK  15 active torsions:
REMARK  status: ('A' for Active; 'I' for Inactive)
REMARK    1  A    between atoms: C1_1  and  C33_45 
REMARK    2  A    between atoms: C2_2  and  C22_31 
REMARK    3  A    between atoms: C3_3  and  O6_20 
REMARK    4  A    between atoms: C5_5  and  O2_7 
REMARK    5  A    between atoms: O2_7  and  C6_8 
REMARK    6  A    between atoms: C6_8  and  C7_9 
REMARK    7  A    between atoms: C7_9  and  C8_10 
REMARK    8  A    between atoms: C11_13  and  O4_17 
REMARK    9  A    between atoms: O6_20  and  C15_21 
REMARK   10  A    between atoms: C22_31  and  C23_32 
REMARK   11  A    between atoms: C23_32  and  C24_33 
REMARK   12  A    between atoms: C25_34  and  C26_35 
REMARK   13  A    between atoms: C28_37  and  O11_42 
REMARK   14  A    between atoms: C33_45  and  O13_46 
REMARK   15  A    between atoms: O13_46  and  C34_47 
ROOT
HETATM    1  C1  UNL     1       0.536  -0.042  -1.221  1.00  0.00     0.150 C 
HETATM    2  C2  UNL     1      -0.243  -1.372  -1.101  1.00  0.00     0.068 C 
HETATM    3  C3  UNL     1       0.207  -2.213   0.114  1.00  0.00     0.153 C 
HETATM    4  C4  UNL     1       1.726  -2.300   0.137  1.00  0.00     0.235 C 
HETATM    5  C5  UNL     1       2.300  -0.908   0.047  1.00  0.00     0.270 C 
HETATM    6  O1  UNL     1       1.921  -0.283  -1.157  1.00  0.00    -0.329 OA
HETATM    7  O5  UNL     1       2.200  -3.064  -0.947  1.00  0.00    -0.215 OA
ENDROOT
BRANCH   2   8
HETATM    8  C22 UNL     1      -1.785  -1.238  -1.114  1.00  0.00     0.074 C 
BRANCH   8   9
HETATM    9  C23 UNL     1      -2.562  -1.413  -2.419  1.00  0.00     0.173 C 
HETATM   10  O12 UNL     1      -3.350  -0.547  -2.724  1.00  0.00    -0.291 OA
BRANCH   9  11
HETATM   11  C24 UNL     1      -2.328  -2.528  -3.161  1.00  0.00     0.037 C 
HETATM   12  C25 UNL     1      -2.983  -3.016  -4.233  1.00  0.00     0.003 C 
BRANCH  12  13
HETATM   13  C26 UNL     1      -4.187  -2.765  -4.791  1.00  0.00     0.002 A 
HETATM   14  C27 UNL     1      -4.476  -3.285  -6.004  1.00  0.00     0.026 A 
HETATM   15  C28 UNL     1      -5.673  -3.173  -6.619  1.00  0.00     0.119 A 
HETATM   16  C29 UNL     1      -6.644  -2.497  -5.970  1.00  0.00     0.153 A 
HETATM   17  C30 UNL     1      -6.393  -1.994  -4.752  1.00  0.00     0.029 A 
HETATM   18  O10 UNL     1      -7.883  -2.353  -6.517  1.00  0.00    -0.188 OA
HETATM   19  C31 UNL     1      -5.194  -2.129  -4.169  1.00  0.00     0.002 A 
BRANCH  15  20
HETATM   20  O11 UNL     1      -5.967  -3.675  -7.866  1.00  0.00    -0.326 OA
HETATM   21  C32 UNL     1      -4.919  -4.144  -8.682  1.00  0.00     0.181 C 
ENDBRANCH  15  20
ENDBRANCH  12  13
ENDBRANCH   9  11
ENDBRANCH   8   9
ENDBRANCH   2   8
BRANCH   1  22
HETATM   22  C33 UNL     1       0.149   1.089  -0.262  1.00  0.00     0.175 C 
BRANCH  22  23
HETATM   23  O13 UNL     1      -0.693   2.017  -0.900  1.00  0.00    -0.326 OA
BRANCH  23  24
HETATM   24  C34 UNL     1      -1.150   3.047  -0.042  1.00  0.00     0.270 C 
HETATM   25  O14 UNL     1      -2.532   3.185  -0.315  1.00  0.00    -0.326 OA
HETATM   26  C35 UNL     1      -2.805   3.678  -1.607  1.00  0.00     0.181 C 
HETATM   27  C36 UNL     1      -2.146   5.028  -1.825  1.00  0.00     0.215 C 
HETATM   28  C37 UNL     1      -0.652   4.907  -1.621  1.00  0.00     0.220 C 
HETATM   29  O17 UNL     1      -2.373   5.492  -3.133  1.00  0.00    -0.218 OA
HETATM   30  C38 UNL     1      -0.422   4.362  -0.230  1.00  0.00     0.241 C 
HETATM   31  O16 UNL     1      -0.058   6.175  -1.734  1.00  0.00    -0.218 OA
HETATM   32  O15 UNL     1       0.961   4.234  -0.009  1.00  0.00    -0.215 OA
ENDBRANCH  23  24
ENDBRANCH  22  23
ENDBRANCH   1  22
BRANCH   3  33
HETATM   33  O6  UNL     1      -0.240  -1.572   1.274  1.00  0.00    -0.354 OA
BRANCH  33  34
HETATM   34  C15 UNL     1      -0.358  -2.364   2.423  1.00  0.00     0.148 C 
HETATM   35  C16 UNL     1      -1.849  -2.616   2.683  1.00  0.00     0.035 C 
HETATM   36  C17 UNL     1      -2.629  -1.307   2.942  1.00  0.00     0.036 C 
HETATM   37  C18 UNL     1      -1.976  -0.520   4.082  1.00  0.00     0.185 C 
HETATM   38  C21 UNL     1      -4.108  -1.608   3.233  1.00  0.00     0.003 C 
HETATM   39  C19 UNL     1      -0.500  -0.289   3.820  1.00  0.00     0.215 C 
HETATM   40  O9  UNL     1      -2.579   0.742   4.234  1.00  0.00    -0.221 OA
HETATM   41  C20 UNL     1       0.221  -1.607   3.616  1.00  0.00     0.212 C 
HETATM   42  O8  UNL     1       0.063   0.374   4.924  1.00  0.00    -0.218 OA
HETATM   43  O7  UNL     1       1.592  -1.343   3.436  1.00  0.00    -0.218 OA
ENDBRANCH  33  34
ENDBRANCH   3  33
BRANCH   5  44
HETATM   44  O2  UNL     1       3.714  -0.973   0.033  1.00  0.00    -0.329 OA
BRANCH  44  45
HETATM   45  C6  UNL     1       4.273  -0.085   0.971  1.00  0.00     0.150 C 
BRANCH  45  46
HETATM   46  C7  UNL     1       5.797  -0.172   0.973  1.00  0.00     0.059 C 
BRANCH  46  47
HETATM   47  C8  UNL     1       6.477   0.604   2.089  1.00  0.00    -0.018 A 
HETATM   48  C9  UNL     1       7.796   0.465   2.292  1.00  0.00    -0.002 A 
HETATM   49  C10 UNL     1       8.404   1.129   3.285  1.00  0.00     0.026 A 
HETATM   50  C11 UNL     1       7.758   1.960   4.128  1.00  0.00     0.119 A 
HETATM   51  C12 UNL     1       6.427   2.103   3.930  1.00  0.00     0.153 A 
HETATM   52  C13 UNL     1       5.831   1.434   2.925  1.00  0.00     0.025 A 
HETATM   53  O3  UNL     1       5.637   2.901   4.699  1.00  0.00    -0.188 OA
BRANCH  50  54
HETATM   54  O4  UNL     1       8.520   2.562   5.105  1.00  0.00    -0.326 OA
HETATM   55  C14 UNL     1       7.928   3.387   6.079  1.00  0.00     0.181 C 
ENDBRANCH  50  54
ENDBRANCH  46  47
ENDBRANCH  45  46
ENDBRANCH  44  45
ENDBRANCH   5  44
TORSDOF 15
