REMARK  1 active torsions:
REMARK  status: ('A' for Active; 'I' for Inactive)
REMARK    1  A    between atoms: C12_13  and  C14_15 
ROOT
HETATM    1  C1  UNL     1       0.843   0.024   0.911  1.00  0.00     0.208 C 
HETATM    2  C2  UNL     1       0.812  -1.500   0.870  1.00  0.00     0.162 C 
HETATM    3  C3  UNL     1       2.202  -2.141   0.864  1.00  0.00     0.034 C 
HETATM    4  C4  UNL     1       3.247  -1.303   1.622  1.00  0.00     0.010 C 
HETATM    5  C5  UNL     1       2.647  -0.429   2.736  1.00  0.00     0.060 C 
HETATM    6  C6  UNL     1       1.570   0.496   2.176  1.00  0.00     0.180 C 
HETATM    7  O1  UNL     1       1.359   1.585   2.663  1.00  0.00    -0.293 OA
HETATM    8  C7  UNL     1       3.749   0.353   3.469  1.00  0.00     0.008 C 
HETATM    9  C8  UNL     1      -0.113  -1.702  -0.340  1.00  0.00     0.067 C 
HETATM   10  C9  UNL     1      -1.296  -0.771   0.024  1.00  0.00     0.165 C 
HETATM   11  C10 UNL     1      -0.646   0.389   0.806  1.00  0.00     0.199 C 
HETATM   12  C11 UNL     1      -0.977   1.609  -0.014  1.00  0.00    -0.019 C 
HETATM   13  C12 UNL     1      -1.730   1.310  -1.083  1.00  0.00    -0.047 C 
HETATM   14  C13 UNL     1      -2.129  -0.143  -1.098  1.00  0.00     0.055 C 
HETATM   15  C17 UNL     1      -0.475   2.959   0.421  1.00  0.00     0.028 C 
HETATM   16  O2  UNL     1      -1.244   0.478   2.081  1.00  0.00    -0.216 OA
HETATM   17  O3  UNL     1      -2.170  -1.473   0.873  1.00  0.00    -0.223 OA
HETATM   18  C18 UNL     1       0.649  -1.223  -1.589  1.00  0.00     0.101 C 
HETATM   19  C19 UNL     1       1.464   0.043  -1.437  1.00  0.00     0.272 C 
HETATM   20  O4  UNL     1       2.039   0.542  -2.382  1.00  0.00    -0.264 OA
HETATM   21  O5  UNL     1       1.537   0.559  -0.185  1.00  0.00    -0.294 OA
HETATM   22  C20 UNL     1      -0.531  -3.168  -0.565  1.00  0.00     0.006 C 
HETATM   23  O6  UNL     1       0.155  -1.937   2.040  1.00  0.00    -0.223 OA
ENDROOT
BRANCH  13  24
HETATM   24  C14 UNL     1      -2.204   2.252  -2.166  1.00  0.00     0.018 C 
HETATM   25  C15 UNL     1      -1.504   1.919  -3.494  1.00  0.00     0.004 C 
HETATM   26  C16 UNL     1      -3.732   2.231  -2.316  1.00  0.00     0.004 C 
ENDBRANCH  13  24
TORSDOF 1
