REMARK  6 active torsions:
REMARK  status: ('A' for Active; 'I' for Inactive)
REMARK    1  A    between atoms: C3_3  and  C15_19 
REMARK    2  A    between atoms: C15_19  and  C16_20 
REMARK    3  A    between atoms: C16_20  and  C17_21 
REMARK    4  A    between atoms: C17_21  and  C18_22 
REMARK    5  A    between atoms: C18_22  and  C19_23 
REMARK    6  A    between atoms: C19_23  and  C20_24 
ROOT
HETATM    1  C1  UNL     1      -0.830   1.488   3.585  1.00  0.00    -0.027 C 
HETATM    2  C2  UNL     1      -1.632   0.727   2.833  1.00  0.00     0.002 C 
HETATM    3  C3  UNL     1      -1.226   0.231   1.466  1.00  0.00     0.248 C 
HETATM    4  N1  UNL     1       0.241   0.193   1.347  1.00  0.00     0.138 N 
HETATM    5  C4  UNL     1       0.835   1.494   1.669  1.00  0.00     0.233 C 
HETATM    6  C5  UNL     1       0.556   1.854   3.143  1.00  0.00     0.059 C 
HETATM    7  C6  UNL     1       2.345   1.648   1.355  1.00  0.00     0.123 C 
HETATM    8  C7  UNL     1       3.324   0.648   1.963  1.00  0.00     0.253 C 
HETATM    9  N2  UNL     1       4.193   0.081   1.064  1.00  0.00    -0.238 NA
HETATM   10  C8  UNL     1       5.340  -0.738   1.474  1.00  0.00     0.129 C 
HETATM   11  C9  UNL     1       5.220  -2.219   1.075  1.00  0.00     0.029 C 
HETATM   12  C10 UNL     1       3.992  -2.913   1.689  1.00  0.00     0.028 C 
HETATM   13  C11 UNL     1       2.784  -2.967   0.736  1.00  0.00     0.120 C 
HETATM   14  N3  UNL     1       1.551  -2.760   1.494  1.00  0.00    -0.295 NA
HETATM   15  C12 UNL     1       0.315  -2.814   0.718  1.00  0.00     0.122 C 
HETATM   16  C13 UNL     1       0.173  -1.714  -0.351  1.00  0.00     0.061 C 
HETATM   17  C14 UNL     1       0.693  -0.320   0.057  1.00  0.00     0.253 C 
HETATM   18  O1  UNL     1       3.382   0.428   3.149  1.00  0.00    -0.271 OA
ENDROOT
BRANCH   3  19
HETATM   19  C15 UNL     1      -1.964   1.043   0.380  1.00  0.00     0.102 C 
BRANCH  19  20
HETATM   20  C16 UNL     1      -3.444   0.711   0.226  1.00  0.00     0.153 C 
HETATM   21  O2  UNL     1      -4.200   0.694   1.171  1.00  0.00    -0.296 OA
BRANCH  20  22
HETATM   22  C17 UNL     1      -3.939   0.363  -1.172  1.00  0.00     0.065 C 
BRANCH  22  23
HETATM   23  C18 UNL     1      -3.792   1.523  -2.170  1.00  0.00     0.008 C 
BRANCH  23  24
HETATM   24  C19 UNL     1      -4.192   1.108  -3.595  1.00  0.00     0.000 C 
BRANCH  24  25
HETATM   25  C20 UNL     1      -3.943   2.235  -4.610  1.00  0.00     0.000 C 
HETATM   26  C21 UNL     1      -4.315   1.814  -6.037  1.00  0.00     0.000 C 
ENDBRANCH  24  25
ENDBRANCH  23  24
ENDBRANCH  22  23
ENDBRANCH  20  22
ENDBRANCH  19  20
ENDBRANCH   3  19
TORSDOF 6
