REMARK  3 active torsions:
REMARK  status: ('A' for Active; 'I' for Inactive)
REMARK    1  A    between atoms: C2_2  and  O4_25 
REMARK    2  A    between atoms: O4_25  and  C22_26 
REMARK    3  A    between atoms: C25_30  and  O7_33 
ROOT
HETATM    1  C1  UNL     1      -2.423   0.295  -1.297  1.00  0.00     0.030 C 
HETATM    2  C2  UNL     1      -2.583  -1.226  -1.224  1.00  0.00     0.118 C 
HETATM    3  C3  UNL     1      -1.197  -1.851  -1.395  1.00  0.00     0.034 C 
HETATM    4  C4  UNL     1      -0.211  -1.379  -0.310  1.00  0.00     0.025 C 
HETATM    5  C5  UNL     1      -0.119   0.160  -0.124  1.00  0.00     0.008 C 
HETATM    6  C6  UNL     1      -1.530   0.795  -0.151  1.00  0.00     0.003 C 
HETATM    7  C7  UNL     1       0.812   0.715  -1.229  1.00  0.00     0.024 C 
HETATM    8  C8  UNL     1       2.172   0.037  -1.165  1.00  0.00    -0.005 C 
HETATM    9  C9  UNL     1       2.228  -1.288  -0.934  1.00  0.00    -0.007 C 
HETATM   10  C10 UNL     1       1.144  -1.990  -0.571  1.00  0.00    -0.027 C 
HETATM   11  C11 UNL     1       3.299   0.737  -1.380  1.00  0.00     0.070 C 
HETATM   12  C12 UNL     1       3.321   2.241  -1.419  1.00  0.00     0.074 C 
HETATM   13  C13 UNL     1       2.076   2.759  -2.135  1.00  0.00     0.009 C 
HETATM   14  C14 UNL     1       0.831   2.249  -1.392  1.00  0.00     0.005 C 
HETATM   15  C15 UNL     1       4.667   2.517  -2.092  1.00  0.00     0.090 C 
HETATM   16  C16 UNL     1       5.341   1.147  -2.051  1.00  0.00     0.156 C 
HETATM   17  O1  UNL     1       4.428   0.250  -1.428  1.00  0.00    -0.335 OA
HETATM   18  C17 UNL     1       6.591   1.391  -1.222  1.00  0.00     0.175 C 
HETATM   19  O2  UNL     1       6.331   2.507  -0.411  1.00  0.00    -0.332 OA
HETATM   20  C18 UNL     1       5.451   3.358  -1.105  1.00  0.00     0.190 C 
HETATM   21  O3  UNL     1       4.513   3.835  -0.178  1.00  0.00    -0.334 OA
HETATM   22  C19 UNL     1       3.538   2.838  -0.025  1.00  0.00     0.151 C 
HETATM   23  C20 UNL     1       6.209   4.519  -1.719  1.00  0.00     0.061 C 
HETATM   24  C21 UNL     1       0.496   0.465   1.266  1.00  0.00     0.001 C 
ENDROOT
BRANCH   2  25
HETATM   25  O4  UNL     1      -3.113  -1.520   0.035  1.00  0.00    -0.332 OA
BRANCH  25  26
HETATM   26  C22 UNL     1      -3.635  -2.811   0.226  1.00  0.00     0.270 C 
HETATM   27  O5  UNL     1      -5.040  -2.684   0.276  1.00  0.00    -0.329 OA
HETATM   28  C23 UNL     1      -5.562  -2.017   1.397  1.00  0.00     0.151 C 
HETATM   29  C24 UNL     1      -4.995  -2.520   2.719  1.00  0.00     0.209 C 
HETATM   30  C28 UNL     1      -5.554  -0.492   1.245  1.00  0.00     0.035 C 
HETATM   31  C25 UNL     1      -3.480  -2.679   2.740  1.00  0.00     0.183 C 
HETATM   32  O8  UNL     1      -5.568  -3.778   3.010  1.00  0.00    -0.218 OA
HETATM   33  C26 UNL     1      -3.076  -3.441   1.484  1.00  0.00     0.238 C 
HETATM   34  O6  UNL     1      -3.541  -4.768   1.575  1.00  0.00    -0.215 OA
BRANCH  31  35
HETATM   35  O7  UNL     1      -2.805  -1.449   2.749  1.00  0.00    -0.349 OA
HETATM   36  C27 UNL     1      -2.711  -0.845   4.019  1.00  0.00     0.174 C 
ENDBRANCH  31  35
ENDBRANCH  25  26
ENDBRANCH   2  25
TORSDOF 3
