REMARK  5 active torsions:
REMARK  status: ('A' for Active; 'I' for Inactive)
REMARK    1  A    between atoms: C2_2  and  O4_18 
REMARK    2  A    between atoms: C3_3  and  O3_16 
REMARK    3  A    between atoms: C7_7  and  O2_14 
REMARK    4  A    between atoms: O4_18  and  C14_19 
REMARK    5  A    between atoms: C14_19  and  C15_20 
ROOT
HETATM    1  C1  UNL     1      -0.850  -0.999   1.294  1.00  0.00     0.026 C 
HETATM    2  C2  UNL     1      -0.608   0.114   0.582  1.00  0.00     0.118 C 
HETATM    3  C3  UNL     1       0.343   0.063  -0.379  1.00  0.00     0.134 C 
HETATM    4  C4  UNL     1       1.127  -1.038  -0.470  1.00  0.00     0.110 A 
HETATM    5  C5  UNL     1       0.917  -2.138   0.286  1.00  0.00     0.042 A 
HETATM    6  C6  UNL     1      -0.101  -2.100   1.164  1.00  0.00     0.006 C 
HETATM    7  C7  UNL     1       1.683  -3.251   0.175  1.00  0.00     0.099 A 
HETATM    8  C8  UNL     1       2.650  -3.142  -0.756  1.00  0.00     0.066 A 
HETATM    9  C9  UNL     1       2.802  -2.021  -1.482  1.00  0.00     0.184 A 
HETATM   10  N1  UNL     1       2.054  -1.016  -1.335  1.00  0.00    -0.220 NA
HETATM   11  O1  UNL     1       3.734  -2.117  -2.282  1.00  0.00    -0.287 OA
HETATM   12  C10 UNL     1       4.241  -3.228  -2.157  1.00  0.00     0.125 A 
HETATM   13  C11 UNL     1       3.621  -3.946  -1.215  1.00  0.00     0.032 A 
ENDROOT
BRANCH   2  14
HETATM   14  O4  UNL     1      -1.429   1.203   0.735  1.00  0.00    -0.326 OA
BRANCH  14  15
HETATM   15  C14 UNL     1      -0.879   2.263   1.494  1.00  0.00     0.181 C 
BRANCH  15  16
HETATM   16  C15 UNL     1      -2.006   3.146   2.018  1.00  0.00     0.170 A 
HETATM   17  C16 UNL     1      -2.728   4.039   1.151  1.00  0.00     0.120 A 
HETATM   18  C17 UNL     1      -4.091   4.548   1.590  1.00  0.00     0.032 C 
HETATM   19  C18 UNL     1      -2.346   4.267  -0.300  1.00  0.00     0.032 C 
HETATM   20  O5  UNL     1      -1.577   4.477   2.175  1.00  0.00    -0.354 OA
ENDBRANCH  15  16
ENDBRANCH  14  15
ENDBRANCH   2  14
BRANCH   3  21
HETATM   21  O3  UNL     1       0.614   1.194  -1.115  1.00  0.00    -0.325 OA
HETATM   22  C13 UNL     1      -0.054   1.246  -2.355  1.00  0.00     0.182 C 
ENDBRANCH   3  21
BRANCH   7  23
HETATM   23  O2  UNL     1       1.405  -4.337   0.974  1.00  0.00    -0.328 OA
HETATM   24  C12 UNL     1       2.123  -5.537   0.847  1.00  0.00     0.181 C 
ENDBRANCH   7  23
TORSDOF 5
