REMARK  1 active torsions:
REMARK  status: ('A' for Active; 'I' for Inactive)
REMARK    1  A    between atoms: C2_2  and  C17_23 
ROOT
HETATM    1  C1  UNL     1      -1.543   0.849  -0.656  1.00  0.00    -0.020 C 
HETATM    2  C2  UNL     1      -2.075  -0.182  -1.332  1.00  0.00    -0.047 C 
HETATM    3  C3  UNL     1      -1.835  -1.492  -0.629  1.00  0.00     0.055 C 
HETATM    4  C4  UNL     1      -0.808  -1.136   0.450  1.00  0.00     0.164 C 
HETATM    5  C5  UNL     1      -0.767   0.397   0.563  1.00  0.00     0.195 C 
HETATM    6  C6  UNL     1       0.730   0.749   0.638  1.00  0.00     0.186 C 
HETATM    7  C7  UNL     1       1.433  -0.535   1.069  1.00  0.00     0.158 C 
HETATM    8  C8  UNL     1       0.671  -1.524   0.178  1.00  0.00     0.067 C 
HETATM    9  C9  UNL     1       0.981  -3.000   0.482  1.00  0.00     0.006 C 
HETATM   10  C10 UNL     1       1.089  -1.213  -1.276  1.00  0.00     0.101 C 
HETATM   11  C11 UNL     1       1.281   0.247  -1.643  1.00  0.00     0.272 C 
HETATM   12  O1  UNL     1       1.576   0.579  -2.772  1.00  0.00    -0.264 OA
HETATM   13  O2  UNL     1       1.146   1.143  -0.631  1.00  0.00    -0.299 OA
HETATM   14  C12 UNL     1       2.960  -0.448   0.998  1.00  0.00     0.033 C 
HETATM   15  C13 UNL     1       3.499   0.995   1.025  1.00  0.00     0.005 C 
HETATM   16  C14 UNL     1       2.644   2.015   1.808  1.00  0.00     0.033 C 
HETATM   17  C15 UNL     1       1.125   1.824   1.647  1.00  0.00     0.182 C 
HETATM   18  O3  UNL     1       0.483   3.029   1.310  1.00  0.00    -0.221 OA
HETATM   19  C16 UNL     1       3.051   2.017   3.295  1.00  0.00     0.003 C 
HETATM   20  O4  UNL     1       1.114  -0.817   2.411  1.00  0.00    -0.223 OA
HETATM   21  O5  UNL     1      -1.449   0.831   1.718  1.00  0.00    -0.217 OA
HETATM   22  O6  UNL     1      -1.264  -1.659   1.672  1.00  0.00    -0.223 OA
HETATM   23  C20 UNL     1      -1.725   2.316  -0.944  1.00  0.00     0.028 C 
ENDROOT
BRANCH   2  24
HETATM   24  C17 UNL     1      -2.932  -0.128  -2.577  1.00  0.00     0.018 C 
HETATM   25  C18 UNL     1      -2.347  -1.008  -3.694  1.00  0.00     0.004 C 
HETATM   26  C19 UNL     1      -4.384  -0.521  -2.262  1.00  0.00     0.004 C 
ENDBRANCH   2  24
TORSDOF 1
