REMARK  6 active torsions:
REMARK  status: ('A' for Active; 'I' for Inactive)
REMARK    1  A    between atoms: C5_5  and  C7_7 
REMARK    2  A    between atoms: C7_7  and  C8_8 
REMARK    3  A    between atoms: C12_14  and  C13_15 
REMARK    4  A    between atoms: C15_17  and  O5_25 
REMARK    5  A    between atoms: C16_18  and  O4_23 
REMARK    6  A    between atoms: C17_19  and  O3_21 
ROOT
HETATM    1  C8  UNL     1       3.058  -0.608  -0.056  1.00  0.00     0.058 A 
HETATM    2  C9  UNL     1       2.917  -2.134   0.011  1.00  0.00     0.043 A 
HETATM    3  C10 UNL     1       4.221  -2.510   0.027  1.00  0.00     0.292 A 
HETATM    4  O1  UNL     1       5.162  -1.523   0.030  1.00  0.00    -0.298 OA
HETATM    5  C11 UNL     1       4.532  -0.268   0.010  1.00  0.00     0.157 A 
HETATM    6  O2  UNL     1       4.545  -3.674   0.050  1.00  0.00    -0.260 OA
HETATM    7  C12 UNL     1       1.816  -2.952   0.053  1.00  0.00     0.001 C 
ENDROOT
BRANCH   1   8
HETATM    8  C7  UNL     1       2.258   0.001  -1.233  1.00  0.00     0.007 C 
BRANCH   8   9
HETATM    9  C5  UNL     1       1.048   0.791  -0.729  1.00  0.00     0.007 A 
HETATM   10  C4  UNL     1       0.196   1.479  -1.768  1.00  0.00     0.007 A 
HETATM   11  C3  UNL     1      -0.883   2.427  -1.378  1.00  0.00     0.053 A 
HETATM   12  C2  UNL     1      -1.179   2.667   0.070  1.00  0.00     0.093 A 
HETATM   13  C1  UNL     1      -0.412   1.984   1.180  1.00  0.00     0.093 A 
HETATM   14  O6  UNL     1      -1.997   3.418   0.575  1.00  0.00    -0.304 OA
HETATM   15  C6  UNL     1       0.703   0.993   0.829  1.00  0.00     0.053 A 
HETATM   16  O7  UNL     1      -0.798   2.331   2.280  1.00  0.00    -0.304 OA
HETATM   17  C22 UNL     1      -1.847   3.251   1.992  1.00  0.00     0.303 A 
ENDBRANCH   8   9
ENDBRANCH   1   8
BRANCH   7  18
HETATM   18  C13 UNL     1       0.508  -2.574   0.055  1.00  0.00     0.004 C 
HETATM   19  C14 UNL     1      -0.683  -3.169   0.038  1.00  0.00     0.026 C 
HETATM   20  C15 UNL     1      -1.859  -2.475   0.032  1.00  0.00     0.118 C 
HETATM   21  C16 UNL     1      -1.947  -1.110  -0.006  1.00  0.00     0.138 C 
HETATM   22  C17 UNL     1      -0.768  -0.449  -0.110  1.00  0.00     0.118 C 
HETATM   23  C18 UNL     1       0.253  -1.286   0.040  1.00  0.00     0.026 C 
BRANCH  20  24
HETATM   24  O5  UNL     1      -2.968  -3.276   0.033  1.00  0.00    -0.326 OA
HETATM   25  C21 UNL     1      -4.245  -2.682   0.038  1.00  0.00     0.181 C 
ENDBRANCH  20  24
BRANCH  21  26
HETATM   26  O4  UNL     1      -3.172  -0.465   0.026  1.00  0.00    -0.324 OA
HETATM   27  C20 UNL     1      -3.369   0.918   0.017  1.00  0.00     0.182 C 
ENDBRANCH  21  26
BRANCH  22  28
HETATM   28  O3  UNL     1      -0.676   0.996  -0.233  1.00  0.00    -0.326 OA
HETATM   29  C19 UNL     1       0.673   2.438  -0.205  1.00  0.00     0.181 C 
ENDBRANCH  22  28
ENDBRANCH   7  18
TORSDOF 6
