REMARK  1 active torsions:
REMARK  status: ('A' for Active; 'I' for Inactive)
REMARK    1  A    between atoms: C19_19  and  C20_20 
ROOT
HETATM    1  C1  UNL     1      -0.183  -1.567  -0.037  1.00  0.00     0.000 C 
HETATM    2  C2  UNL     1      -0.828  -2.895   0.398  1.00  0.00     0.000 C 
HETATM    3  C3  UNL     1      -0.057  -3.576   1.543  1.00  0.00     0.000 C 
HETATM    4  C4  UNL     1       1.489  -3.500   1.453  1.00  0.00     0.000 C 
HETATM    5  C5  UNL     1       1.955  -2.157   0.818  1.00  0.00     0.000 C 
HETATM    6  C6  UNL     1       1.239  -1.894  -0.515  1.00  0.00     0.000 C 
HETATM    7  C7  UNL     1       3.487  -2.071   0.718  1.00  0.00     0.000 C 
HETATM    8  C8  UNL     1       4.140  -3.339   0.165  1.00  0.00     0.000 C 
HETATM    9  C9  UNL     1       3.755  -4.558   1.022  1.00  0.00     0.000 C 
HETATM   10  C10 UNL     1       2.215  -4.809   0.960  1.00  0.00     0.000 C 
HETATM   11  C11 UNL     1       1.898  -5.984   1.929  1.00  0.00     0.000 C 
HETATM   12  C12 UNL     1       2.764  -7.234   1.712  1.00  0.00     0.000 C 
HETATM   13  C13 UNL     1       4.253  -6.903   1.832  1.00  0.00     0.000 C 
HETATM   14  C14 UNL     1       4.717  -5.774   0.884  1.00  0.00     0.000 C 
HETATM   15  C15 UNL     1       6.151  -5.396   1.348  1.00  0.00     0.000 C 
HETATM   16  C16 UNL     1       4.865  -6.293  -0.561  1.00  0.00     0.000 C 
HETATM   17  C17 UNL     1       1.704  -5.227  -0.437  1.00  0.00     0.000 C 
HETATM   18  C18 UNL     1       1.451  -0.922   1.617  1.00  0.00     0.000 C 
HETATM   19  C19 UNL     1       0.007  -0.624   1.167  1.00  0.00     0.000 C 
ENDROOT
BRANCH  19  20
HETATM   20  C20 UNL     1      -0.278   0.881   0.962  1.00  0.00     0.000 C 
HETATM   21  C21 UNL     1       0.265   1.559  -0.311  1.00  0.00     0.000 C 
HETATM   22  C22 UNL     1       0.786   2.975  -0.005  1.00  0.00     0.000 C 
HETATM   23  C26 UNL     1      -0.955   1.723  -1.228  1.00  0.00     0.000 C 
HETATM   24  C23 UNL     1      -0.264   3.850   0.704  1.00  0.00     0.000 C 
HETATM   25  C24 UNL     1      -1.722   3.693   0.202  1.00  0.00     0.000 C 
HETATM   26  C25 UNL     1      -2.015   2.229  -0.237  1.00  0.00     0.000 C 
HETATM   27  C30 UNL     1      -2.255   4.838  -0.740  1.00  0.00     0.000 C 
HETATM   28  C27 UNL     1      -3.456   2.057  -0.744  1.00  0.00     0.000 C 
HETATM   29  C38 UNL     1      -1.783   1.214   0.918  1.00  0.00     0.000 C 
HETATM   30  C28 UNL     1      -3.901   3.152  -1.716  1.00  0.00     0.000 C 
HETATM   31  C29 UNL     1      -3.753   4.538  -1.063  1.00  0.00     0.000 C 
HETATM   32  C34 UNL     1      -4.615   5.655  -1.721  1.00  0.00     0.000 C 
HETATM   33  C33 UNL     1      -4.422   6.975  -0.940  1.00  0.00     0.000 C 
HETATM   34  C35 UNL     1      -6.129   5.317  -1.612  1.00  0.00     0.000 C 
HETATM   35  C36 UNL     1      -4.335   5.857  -3.224  1.00  0.00     0.000 C 
HETATM   36  C32 UNL     1      -2.955   7.340  -0.703  1.00  0.00     0.000 C 
HETATM   37  C31 UNL     1      -2.207   6.201   0.007  1.00  0.00     0.000 C 
HETATM   38  C37 UNL     1      -1.360   4.979  -1.992  1.00  0.00     0.000 C 
ENDBRANCH  19  20
TORSDOF 1
