REMARK  1 active torsions:
REMARK  status: ('A' for Active; 'I' for Inactive)
REMARK    1  A    between atoms: C15_15  and  C17_17 
ROOT
HETATM    1  C1  UNL     1      -3.200  -0.543   2.216  1.00  0.00     0.003 C 
HETATM    2  C2  UNL     1      -3.061  -2.069   2.180  1.00  0.00     0.033 C 
HETATM    3  C3  UNL     1      -2.416  -2.556   0.884  1.00  0.00     0.152 C 
HETATM    4  C4  UNL     1      -1.107  -1.813   0.607  1.00  0.00     0.030 C 
HETATM    5  C5  UNL     1      -1.200  -0.263   0.568  1.00  0.00     0.002 C 
HETATM    6  C6  UNL     1      -1.869   0.167   1.907  1.00  0.00     0.000 C 
HETATM    7  C7  UNL     1       0.263   0.296   0.478  1.00  0.00     0.000 C 
HETATM    8  C8  UNL     1       1.219  -0.355  -0.563  1.00  0.00     0.000 C 
HETATM    9  C9  UNL     1       1.112  -1.889  -0.558  1.00  0.00     0.000 C 
HETATM   10  C10 UNL     1      -0.338  -2.385  -0.593  1.00  0.00     0.003 C 
HETATM   11  C11 UNL     1       1.015   0.235  -1.971  1.00  0.00     0.000 C 
HETATM   12  C12 UNL     1       1.619   1.635  -1.805  1.00  0.00     0.003 C 
HETATM   13  C13 UNL     1       0.673   2.460  -0.918  1.00  0.00     0.000 C 
HETATM   14  C14 UNL     1       0.410   1.836   0.463  1.00  0.00     0.000 C 
HETATM   15  C15 UNL     1       2.984   1.290  -1.183  1.00  0.00     0.033 C 
HETATM   16  C16 UNL     1       2.687   0.080  -0.274  1.00  0.00     0.003 C 
HETATM   17  C18 UNL     1      -2.087   0.275  -0.578  1.00  0.00     0.000 C 
HETATM   18  O2  UNL     1      -3.314  -2.438  -0.192  1.00  0.00    -0.224 OA
ENDROOT
BRANCH  15  19
HETATM   19  C17 UNL     1       3.750   2.425  -0.516  1.00  0.00     0.182 C 
HETATM   20  O1  UNL     1       4.047   3.422  -1.473  1.00  0.00    -0.221 OA
ENDBRANCH  15  19
TORSDOF 1
