REMARK  6 active torsions:
REMARK  status: ('A' for Active; 'I' for Inactive)
REMARK    1  A    between atoms: C3_3  and  C39_43 
REMARK    2  A    between atoms: C15_15  and  C17_17 
REMARK    3  A    between atoms: C17_17  and  O2_19 
REMARK    4  A    between atoms: O2_19  and  C18_20 
REMARK    5  A    between atoms: C18_20  and  C19_21 
REMARK    6  A    between atoms: C26_28  and  C35_37 
ROOT
HETATM    1  O2  UNL     1       0.786   2.017  -2.887  1.00  0.00    -0.299 OA
ENDROOT
BRANCH   1   2
HETATM    2  C17 UNL     1      -0.444   2.535  -3.194  1.00  0.00     0.271 C 
HETATM    3  O1  UNL     1      -0.615   3.169  -4.214  1.00  0.00    -0.264 OA
BRANCH   2   4
HETATM    4  C15 UNL     1      -1.514   2.455  -2.101  1.00  0.00     0.086 C 
HETATM    5  C12 UNL     1      -2.791   3.282  -2.395  1.00  0.00     0.009 C 
HETATM    6  C11 UNL     1      -3.844   2.241  -2.800  1.00  0.00     0.001 C 
HETATM    7  C13 UNL     1      -3.316   3.989  -1.134  1.00  0.00     0.001 C 
HETATM    8  C8  UNL     1      -3.637   1.166  -1.719  1.00  0.00     0.001 C 
HETATM    9  C7  UNL     1      -4.062   1.638  -0.298  1.00  0.00     0.000 C 
HETATM   10  C9  UNL     1      -4.253  -0.195  -2.088  1.00  0.00     0.000 C 
HETATM   11  C16 UNL     1      -2.092   1.052  -1.828  1.00  0.00     0.010 C 
HETATM   12  C5  UNL     1      -5.562   1.416   0.113  1.00  0.00     0.000 C 
HETATM   13  C14 UNL     1      -3.465   3.023   0.052  1.00  0.00     0.000 C 
HETATM   14  C4  UNL     1      -5.928  -0.066  -0.211  1.00  0.00     0.007 C 
HETATM   15  C6  UNL     1      -5.728   1.614   1.646  1.00  0.00     0.000 C 
HETATM   16  C38 UNL     1      -6.469   2.453  -0.584  1.00  0.00     0.000 C 
HETATM   17  C3  UNL     1      -7.238  -0.652   0.383  1.00  0.00     0.058 C 
HETATM   18  C10 UNL     1      -5.729  -0.345  -1.712  1.00  0.00     0.000 C 
HETATM   19  C2  UNL     1      -7.364  -0.294   1.880  1.00  0.00     0.007 C 
HETATM   20  C40 UNL     1      -7.235  -2.204   0.318  1.00  0.00     0.008 C 
HETATM   21  C1  UNL     1      -7.095   1.179   2.194  1.00  0.00     0.000 C 
BRANCH  17  22
HETATM   22  C39 UNL     1      -8.466  -0.164  -0.376  1.00  0.00     0.206 C 
HETATM   23  O5  UNL     1      -8.968  -0.786  -1.283  1.00  0.00    -0.288 OA
ENDBRANCH  17  22
ENDBRANCH   2   4
ENDBRANCH   1   2
BRANCH   1  24
HETATM   24  C18 UNL     1       0.920   0.966  -1.970  1.00  0.00     0.182 C 
BRANCH  24  25
HETATM   25  C19 UNL     1       2.368   0.481  -1.933  1.00  0.00     0.154 C 
HETATM   26  C20 UNL     1       3.290   1.375  -1.095  1.00  0.00     0.031 C 
HETATM   27  C21 UNL     1       3.162   0.758   0.305  1.00  0.00     0.003 C 
HETATM   28  C33 UNL     1       4.780   1.304  -1.475  1.00  0.00     0.003 C 
HETATM   29  C22 UNL     1       3.377  -0.736   0.000  1.00  0.00     0.003 C 
HETATM   30  C23 UNL     1       2.862  -1.644   1.128  1.00  0.00     0.000 C 
HETATM   31  C31 UNL     1       4.852  -1.058  -0.371  1.00  0.00     0.000 C 
HETATM   32  C37 UNL     1       2.467  -0.893  -1.249  1.00  0.00     0.033 C 
HETATM   33  C24 UNL     1       3.840  -1.741   2.304  1.00  0.00     0.000 C 
HETATM   34  C25 UNL     1       5.194  -2.293   1.824  1.00  0.00     0.007 C 
HETATM   35  C26 UNL     1       6.109  -2.898   2.924  1.00  0.00     0.058 C 
HETATM   36  C30 UNL     1       5.863  -1.323   0.801  1.00  0.00     0.000 C 
HETATM   37  C27 UNL     1       7.346  -3.541   2.256  1.00  0.00     0.007 C 
HETATM   38  C36 UNL     1       5.397  -4.026   3.712  1.00  0.00     0.008 C 
HETATM   39  C28 UNL     1       8.079  -2.582   1.316  1.00  0.00     0.000 C 
HETATM   40  C29 UNL     1       7.127  -2.039   0.240  1.00  0.00     0.000 C 
HETATM   41  C34 UNL     1       6.340   0.000   1.436  1.00  0.00     0.000 C 
HETATM   42  C32 UNL     1       5.341  -0.129  -1.508  1.00  0.00     0.000 C 
HETATM   43  O4  UNL     1       2.796   0.401  -3.265  1.00  0.00    -0.223 OA
BRANCH  35  44
HETATM   44  C35 UNL     1       6.556  -1.905   3.991  1.00  0.00     0.206 C 
HETATM   45  O3  UNL     1       5.918  -0.932   4.314  1.00  0.00    -0.288 OA
ENDBRANCH  35  44
ENDBRANCH  24  25
ENDBRANCH   1  24
TORSDOF 6
