REMARK  2 active torsions:
REMARK  status: ('A' for Active; 'I' for Inactive)
REMARK    1  A    between atoms: C5_5  and  C9_10 
REMARK    2  A    between atoms: C10_11  and  C11_12 
ROOT
HETATM    1  C1  UNL     1      -2.144  -0.926   0.943  1.00  0.00     0.036 C 
HETATM    2  C2  UNL     1      -1.927  -2.227   0.182  1.00  0.00     0.155 C 
HETATM    3  C3  UNL     1      -0.480  -2.684   0.338  1.00  0.00     0.063 C 
HETATM    4  C4  UNL     1       0.565  -1.607   0.085  1.00  0.00     0.122 A 
HETATM    5  C5  UNL     1       0.150  -0.177   0.072  1.00  0.00     0.134 A 
HETATM    6  C6  UNL     1      -1.312   0.227   0.331  1.00  0.00     0.031 C 
HETATM    7  C7  UNL     1      -1.986   0.703  -0.979  1.00  0.00     0.003 C 
HETATM    8  C8  UNL     1      -1.369   1.411   1.327  1.00  0.00     0.003 C 
HETATM    9  O1  UNL     1       0.804  -0.747   1.218  1.00  0.00    -0.355 OA
HETATM   10  C13 UNL     1       1.870  -2.066  -0.549  1.00  0.00     0.033 C 
HETATM   11  O3  UNL     1      -2.790  -3.221   0.683  1.00  0.00    -0.223 OA
ENDROOT
BRANCH   5  12
HETATM   12  C9  UNL     1       0.953   0.712  -0.750  1.00  0.00     0.005 C 
HETATM   13  C10 UNL     1       1.692   1.706  -0.232  1.00  0.00     0.035 C 
BRANCH  13  14
HETATM   14  C11 UNL     1       2.422   2.557  -0.998  1.00  0.00     0.173 C 
HETATM   15  C12 UNL     1       3.203   3.640  -0.272  1.00  0.00     0.077 C 
HETATM   16  O2  UNL     1       2.469   2.482  -2.206  1.00  0.00    -0.291 OA
ENDBRANCH  13  14
ENDBRANCH   5  12
TORSDOF 2
