REMARK  3 active torsions:
REMARK  status: ('A' for Active; 'I' for Inactive)
REMARK    1  A    between atoms: C5_5  and  C9_11 
REMARK    2  A    between atoms: C6_6  and  C7_7 
REMARK    3  A    between atoms: C10_12  and  C11_13 
ROOT
HETATM    1  C1  UNL     1      -1.411  -0.199  -1.752  1.00  0.00     0.070 C 
HETATM    2  C2  UNL     1      -1.419  -1.715  -1.792  1.00  0.00     0.151 C 
HETATM    3  C3  UNL     1      -0.914  -2.400  -0.537  1.00  0.00     0.067 C 
HETATM    4  C4  UNL     1       0.463  -1.861  -0.109  1.00  0.00     0.039 C 
HETATM    5  C5  UNL     1       0.541  -0.314  -0.144  1.00  0.00     0.148 C 
HETATM    6  C6  UNL     1      -0.003   0.357  -1.440  1.00  0.00     0.067 C 
HETATM    7  C8  UNL     1      -0.117   1.891  -1.242  1.00  0.00     0.006 C 
HETATM    8  O2  UNL     1       1.896   0.051   0.019  1.00  0.00    -0.221 OA
HETATM    9  C13 UNL     1       1.578  -2.621  -0.855  1.00  0.00     0.003 C 
HETATM   10  O4  UNL     1      -1.845  -2.338  -2.737  1.00  0.00    -0.296 OA
ENDROOT
BRANCH   5  11
HETATM   11  C9  UNL     1      -0.226   0.205   1.066  1.00  0.00     0.001 C 
HETATM   12  C10 UNL     1       0.197   1.143   1.928  1.00  0.00     0.004 C 
BRANCH  12  13
HETATM   13  C11 UNL     1      -0.628   1.633   3.093  1.00  0.00     0.174 C 
HETATM   14  C12 UNL     1       0.007   1.224   4.418  1.00  0.00     0.041 C 
HETATM   15  O3  UNL     1      -0.736   3.045   3.044  1.00  0.00    -0.219 OA
ENDBRANCH  12  13
ENDBRANCH   5  11
BRANCH   6  16
HETATM   16  C7  UNL     1       0.906   0.114  -2.664  1.00  0.00     0.185 C 
HETATM   17  O1  UNL     1       0.497   0.879  -3.781  1.00  0.00    -0.221 OA
ENDBRANCH   6  16
TORSDOF 3
