REMARK  2 active torsions:
REMARK  status: ('A' for Active; 'I' for Inactive)
REMARK    1  A    between atoms: C7_8  and  C11_14 
REMARK    2  A    between atoms: C8_9  and  O3_12 
ROOT
HETATM    1  C1  UNL     1      -4.249   1.801  -0.104  1.00  0.00     0.135 A 
HETATM    2  C2  UNL     1      -3.731   3.030   0.024  1.00  0.00     0.055 A 
HETATM    3  C3  UNL     1      -2.408   3.261   0.081  1.00  0.00     0.138 A 
HETATM    4  C4  UNL     1      -1.567   2.204   0.011  1.00  0.00     0.089 A 
HETATM    5  C5  UNL     1      -2.049   0.958  -0.127  1.00  0.00     0.107 A 
HETATM    6  C6  UNL     1      -3.381   0.783  -0.182  1.00  0.00     0.052 A 
HETATM    7  O1  UNL     1      -1.240  -0.127  -0.231  1.00  0.00    -0.305 OA
HETATM    8  C7  UNL     1       0.106   0.017  -0.008  1.00  0.00     0.125 C 
HETATM    9  C8  UNL     1       0.620   1.272   0.066  1.00  0.00     0.156 C 
HETATM   10  C9  UNL     1      -0.216   2.357   0.076  1.00  0.00     0.224 C 
HETATM   11  O2  UNL     1       0.275   3.462   0.175  1.00  0.00    -0.284 OA
HETATM   12  O7  UNL     1      -1.995   4.553   0.216  1.00  0.00    -0.190 OA
HETATM   13  O8  UNL     1      -5.591   1.589  -0.158  1.00  0.00    -0.190 OA
ENDROOT
BRANCH   8  14
HETATM   14  C11 UNL     1       0.818  -1.146   0.069  1.00  0.00     0.029 A 
HETATM   15  C12 UNL     1       0.166  -2.313  -0.145  1.00  0.00     0.032 A 
HETATM   16  C13 UNL     1       0.739  -3.528  -0.109  1.00  0.00     0.158 A 
HETATM   17  C14 UNL     1       2.046  -3.623   0.170  1.00  0.00     0.181 A 
HETATM   18  O6  UNL     1       0.027  -4.663  -0.346  1.00  0.00    -0.188 OA
HETATM   19  C15 UNL     1       2.747  -2.505   0.402  1.00  0.00     0.158 A 
HETATM   20  O5  UNL     1       2.660  -4.834   0.223  1.00  0.00    -0.186 OA
HETATM   21  C16 UNL     1       2.129  -1.312   0.345  1.00  0.00     0.032 A 
HETATM   22  O4  UNL     1       4.071  -2.595   0.701  1.00  0.00    -0.188 OA
ENDBRANCH   8  14
BRANCH   9  23
HETATM   23  O3  UNL     1       1.942   1.581   0.289  1.00  0.00    -0.323 OA
HETATM   24  C10 UNL     1       2.678   1.842  -0.887  1.00  0.00     0.182 C 
ENDBRANCH   9  23
TORSDOF 2
