REMARK  3 active torsions:
REMARK  status: ('A' for Active; 'I' for Inactive)
REMARK    1  A    between atoms: C5_5  and  C9_9 
REMARK    2  A    between atoms: C9_9  and  C10_10 
REMARK    3  A    between atoms: C10_10  and  C11_11 
ROOT
HETATM    1  C1  UNL     1      -2.324   0.089  -1.473  1.00  0.00     0.034 C 
HETATM    2  C2  UNL     1      -2.387  -1.435  -1.400  1.00  0.00     0.155 C 
HETATM    3  C3  UNL     1      -1.700  -1.951  -0.139  1.00  0.00     0.064 C 
HETATM    4  C4  UNL     1      -0.242  -1.494  -0.046  1.00  0.00     0.139 C 
HETATM    5  C5  UNL     1      -0.162   0.010  -0.235  1.00  0.00     0.080 C 
HETATM    6  C6  UNL     1      -0.884   0.642  -1.419  1.00  0.00     0.015 C 
HETATM    7  C7  UNL     1      -0.970   2.180  -1.262  1.00  0.00     0.001 C 
HETATM    8  C8  UNL     1      -0.128   0.369  -2.736  1.00  0.00     0.001 C 
HETATM    9  O2  UNL     1       0.504  -2.127  -1.063  1.00  0.00    -0.225 OA
HETATM   10  C13 UNL     1       0.355  -1.965   1.284  1.00  0.00     0.034 C 
HETATM   11  O3  UNL     1      -3.735  -1.844  -1.386  1.00  0.00    -0.223 OA
ENDROOT
BRANCH   5  12
HETATM   12  C9  UNL     1       0.527   0.758   0.602  1.00  0.00    -0.150 C 
BRANCH  12  13
HETATM   13  C10 UNL     1       1.192   1.525   1.436  1.00  0.00     0.096 C 
BRANCH  13  14
HETATM   14  C11 UNL     1       2.358   0.995   2.227  1.00  0.00     0.164 C 
HETATM   15  O1  UNL     1       3.337   0.464   1.350  1.00  0.00    -0.222 OA
HETATM   16  C12 UNL     1       3.006   2.064   3.103  1.00  0.00     0.037 C 
ENDBRANCH  13  14
ENDBRANCH  12  13
ENDBRANCH   5  12
TORSDOF 3
