REMARK  2 active torsions:
REMARK  status: ('A' for Active; 'I' for Inactive)
REMARK    1  A    between atoms: C9_9  and  O2_13 
REMARK    2  A    between atoms: O2_13  and  C12_14 
ROOT
HETATM    1  C1  UNL     1      -1.301   0.565  -0.457  1.00  0.00     0.057 C 
HETATM    2  C2  UNL     1      -2.803   0.710  -0.463  1.00  0.00    -0.026 C 
HETATM    3  C3  UNL     1      -3.445  -0.441  -0.245  1.00  0.00    -0.001 C 
HETATM    4  C4  UNL     1      -2.509  -1.596  -0.014  1.00  0.00     0.148 C 
HETATM    5  C5  UNL     1      -1.154  -0.982  -0.433  1.00  0.00     0.067 C 
HETATM    6  C6  UNL     1       0.065  -1.548   0.275  1.00  0.00     0.132 C 
HETATM    7  C7  UNL     1       1.377  -0.885  -0.153  1.00  0.00     0.058 C 
HETATM    8  C8  UNL     1       1.746   0.314   0.727  1.00  0.00     0.040 C 
HETATM    9  C9  UNL     1       0.905   1.570   0.450  1.00  0.00     0.153 C 
HETATM   10  C10 UNL     1      -0.625   1.454   0.604  1.00  0.00     0.156 C 
HETATM   11  O1  UNL     1      -1.115   2.757   0.364  1.00  0.00    -0.223 OA
HETATM   12  C11 UNL     1      -1.034   1.162   2.051  1.00  0.00     0.036 C 
HETATM   13  C14 UNL     1       2.302  -2.073  -0.136  1.00  0.00     0.043 C 
HETATM   14  C15 UNL     1       1.523  -3.180  -0.093  1.00  0.00     0.292 C 
HETATM   15  O4  UNL     1       0.192  -2.928   0.045  1.00  0.00    -0.301 OA
HETATM   16  O5  UNL     1       1.953  -4.311  -0.163  1.00  0.00    -0.260 OA
HETATM   17  C16 UNL     1       3.639  -2.078  -0.218  1.00  0.00     0.001 C 
HETATM   18  O6  UNL     1      -2.815  -2.671  -0.877  1.00  0.00    -0.221 OA
HETATM   19  C17 UNL     1      -2.645  -2.095   1.421  1.00  0.00     0.038 C 
ENDROOT
BRANCH   9  20
HETATM   20  O2  UNL     1       1.198   2.036  -0.842  1.00  0.00    -0.302 OA
BRANCH  20  21
HETATM   21  C12 UNL     1       2.172   2.971  -1.004  1.00  0.00     0.272 C 
HETATM   22  C13 UNL     1       2.209   3.430  -2.448  1.00  0.00     0.106 C 
HETATM   23  O3  UNL     1       2.896   3.392  -0.131  1.00  0.00    -0.264 OA
ENDBRANCH  20  21
ENDBRANCH   9  20
TORSDOF 2
