REMARK  3 active torsions:
REMARK  status: ('A' for Active; 'I' for Inactive)
REMARK    1  A    between atoms: C13_14  and  C15_17 
REMARK    2  A    between atoms: C15_17  and  C16_18 
REMARK    3  A    between atoms: C16_18  and  C17_19 
ROOT
HETATM    1  C1  UNL     1      -5.446  -3.005   0.091  1.00  0.00     0.000 A 
HETATM    2  C2  UNL     1      -4.988  -4.260   0.186  1.00  0.00     0.000 A 
HETATM    3  C3  UNL     1      -3.666  -4.479   0.239  1.00  0.00     0.003 A 
HETATM    4  C4  UNL     1      -2.792  -3.454   0.199  1.00  0.00     0.042 A 
HETATM    5  C5  UNL     1      -3.248  -2.192   0.106  1.00  0.00     0.042 A 
HETATM    6  C6  UNL     1      -4.579  -1.982   0.051  1.00  0.00     0.003 A 
HETATM    7  C7  UNL     1      -2.387  -1.137   0.065  1.00  0.00     0.198 A 
HETATM    8  C8  UNL     1      -1.041  -1.360   0.126  1.00  0.00     0.067 A 
HETATM    9  C9  UNL     1      -0.606  -2.636   0.209  1.00  0.00     0.044 A 
HETATM   10  C10 UNL     1      -1.458  -3.698   0.251  1.00  0.00     0.196 A 
HETATM   11  O1  UNL     1      -1.044  -4.835   0.331  1.00  0.00    -0.287 OA
HETATM   12  C11 UNL     1       0.713  -2.884   0.254  1.00  0.00     0.003 A 
HETATM   13  C12 UNL     1       1.587  -1.875   0.214  1.00  0.00    -0.002 A 
HETATM   14  C13 UNL     1       1.180  -0.597   0.137  1.00  0.00     0.004 A 
HETATM   15  C14 UNL     1      -0.148  -0.334   0.091  1.00  0.00     0.130 A 
HETATM   16  O2  UNL     1      -0.538   0.972   0.048  1.00  0.00    -0.190 OA
HETATM   17  O3  UNL     1      -2.862  -0.028  -0.034  1.00  0.00    -0.286 OA
ENDROOT
BRANCH  14  18
HETATM   18  C15 UNL     1       2.307   0.434   0.105  1.00  0.00     0.033 C 
BRANCH  18  19
HETATM   19  C16 UNL     1       2.021   1.937  -0.041  1.00  0.00     0.030 C 
BRANCH  19  20
HETATM   20  C17 UNL     1       3.278   2.771  -0.122  1.00  0.00    -0.034 C 
HETATM   21  C18 UNL     1       3.310   4.100  -0.324  1.00  0.00    -0.048 C 
HETATM   22  C19 UNL     1       4.615   4.857  -0.394  1.00  0.00     0.026 C 
HETATM   23  C20 UNL     1       2.075   4.953  -0.493  1.00  0.00     0.026 C 
ENDBRANCH  19  20
ENDBRANCH  18  19
ENDBRANCH  14  18
TORSDOF 3
