REMARK  3 active torsions:
REMARK  status: ('A' for Active; 'I' for Inactive)
REMARK    1  A    between atoms: C7_7  and  O2_13 
REMARK    2  A    between atoms: O2_13  and  C12_14 
REMARK    3  A    between atoms: C12_14  and  C13_16 
ROOT
HETATM    1  C1  UNL     1      -3.526   2.123  -0.214  1.00  0.00     0.040 C 
HETATM    2  C2  UNL     1      -3.611   1.593  -1.470  1.00  0.00     0.191 C 
HETATM    3  C3  UNL     1      -2.898   0.497  -1.857  1.00  0.00     0.015 C 
HETATM    4  C4  UNL     1      -2.539  -0.377  -0.900  1.00  0.00     0.003 C 
HETATM    5  C5  UNL     1      -1.613  -1.562  -0.944  1.00  0.00     0.153 C 
HETATM    6  C6  UNL     1      -0.163  -1.080  -1.002  1.00  0.00     0.087 C 
HETATM    7  C7  UNL     1       0.406  -0.513   0.315  1.00  0.00     0.134 C 
HETATM    8  C8  UNL     1      -0.561   0.400   1.110  1.00  0.00     0.065 C 
HETATM    9  C9  UNL     1      -1.032   1.739   0.494  1.00  0.00     0.148 C 
HETATM   10  C10 UNL     1      -2.515   2.097   0.687  1.00  0.00     0.007 C 
HETATM   11  C11 UNL     1      -0.214   2.875   1.142  1.00  0.00     0.038 C 
HETATM   12  O1  UNL     1      -0.702   1.838  -0.873  1.00  0.00    -0.221 OA
HETATM   13  C16 UNL     1       0.468  -2.274  -1.668  1.00  0.00     0.046 C 
HETATM   14  C17 UNL     1      -0.538  -2.972  -2.252  1.00  0.00     0.292 C 
HETATM   15  O4  UNL     1      -1.794  -2.513  -1.969  1.00  0.00    -0.296 OA
HETATM   16  O5  UNL     1      -0.352  -3.930  -2.973  1.00  0.00    -0.259 OA
HETATM   17  C18 UNL     1       1.771  -2.570  -1.757  1.00  0.00     0.001 C 
HETATM   18  C19 UNL     1      -2.679   0.238  -3.328  1.00  0.00     0.034 C 
HETATM   19  O6  UNL     1      -4.353   2.123  -2.269  1.00  0.00    -0.287 OA
ENDROOT
BRANCH   7  20
HETATM   20  O2  UNL     1       0.755  -1.607   1.117  1.00  0.00    -0.304 OA
BRANCH  20  21
HETATM   21  C12 UNL     1       1.833  -1.656   1.956  1.00  0.00     0.271 C 
HETATM   22  O3  UNL     1       2.102  -2.671   2.564  1.00  0.00    -0.264 OA
BRANCH  21  23
HETATM   23  C13 UNL     1       2.678  -0.395   2.147  1.00  0.00     0.086 C 
HETATM   24  C14 UNL     1       3.170  -0.290   3.604  1.00  0.00     0.010 C 
HETATM   25  C15 UNL     1       3.887  -0.401   1.196  1.00  0.00     0.010 C 
ENDBRANCH  21  23
ENDBRANCH  20  21
ENDBRANCH   7  20
TORSDOF 3
