REMARK  5 active torsions:
REMARK  status: ('A' for Active; 'I' for Inactive)
REMARK    1  A    between atoms: C2_2  and  O7_30 
REMARK    2  A    between atoms: C5_5  and  C23_27 
REMARK    3  A    between atoms: C15_16  and  C18_19 
REMARK    4  A    between atoms: O7_30  and  C24_31 
REMARK    5  A    between atoms: C26_33  and  C30_40 
ROOT
HETATM    1  C1  UNL     1      -1.770   0.051  -2.180  1.00  0.00     0.030 C 
HETATM    2  C2  UNL     1      -2.421  -0.833  -1.123  1.00  0.00     0.118 C 
HETATM    3  C3  UNL     1      -1.373  -1.762  -0.496  1.00  0.00     0.060 C 
HETATM    4  C4  UNL     1       0.039  -1.156  -0.344  1.00  0.00     0.136 C 
HETATM    5  C5  UNL     1      -0.007   0.383  -0.267  1.00  0.00     0.084 C 
HETATM    6  C6  UNL     1      -0.647   0.921  -1.581  1.00  0.00     0.012 C 
HETATM    7  C7  UNL     1       1.413   1.008  -0.070  1.00  0.00     0.014 C 
HETATM    8  C8  UNL     1       2.572   0.043  -0.398  1.00  0.00     0.029 C 
HETATM    9  C9  UNL     1       2.241  -0.760  -1.661  1.00  0.00     0.005 C 
HETATM   10  C10 UNL     1       0.987  -1.633  -1.460  1.00  0.00     0.031 C 
HETATM   11  C11 UNL     1       3.953   0.717  -0.411  1.00  0.00     0.129 C 
HETATM   12  C12 UNL     1       4.255   1.524   0.877  1.00  0.00     0.058 C 
HETATM   13  C13 UNL     1       3.044   2.395   1.262  1.00  0.00     0.155 C 
HETATM   14  C14 UNL     1       1.712   1.646   1.298  1.00  0.00     0.034 C 
HETATM   15  O1  UNL     1       3.242   3.005   2.517  1.00  0.00    -0.223 OA
HETATM   16  C15 UNL     1       5.454   2.393   0.416  1.00  0.00     0.026 C 
HETATM   17  C16 UNL     1       5.128   2.792  -1.033  1.00  0.00     0.007 C 
HETATM   18  C17 UNL     1       4.210   1.683  -1.576  1.00  0.00     0.031 C 
HETATM   19  C22 UNL     1       4.657   0.613   2.059  1.00  0.00     0.005 C 
HETATM   20  O4  UNL     1       4.905  -0.315  -0.534  1.00  0.00    -0.226 OA
HETATM   21  O6  UNL     1       0.548  -1.642   0.878  1.00  0.00    -0.226 OA
ENDROOT
BRANCH   2  22
HETATM   22  O7  UNL     1      -3.455  -1.585  -1.701  1.00  0.00    -0.356 OA
BRANCH  22  23
HETATM   23  C24 UNL     1      -4.408  -2.033  -0.771  1.00  0.00     0.148 C 
HETATM   24  C25 UNL     1      -5.703  -1.240  -0.945  1.00  0.00     0.038 C 
HETATM   25  C26 UNL     1      -6.812  -1.729   0.003  1.00  0.00     0.069 C 
HETATM   26  C27 UNL     1      -7.057  -3.227  -0.199  1.00  0.00     0.188 C 
HETATM   27  C28 UNL     1      -5.789  -4.066  -0.169  1.00  0.00     0.215 C 
HETATM   28  O10 UNL     1      -7.687  -3.434  -1.442  1.00  0.00    -0.221 OA
HETATM   29  C29 UNL     1      -4.630  -3.520  -0.983  1.00  0.00     0.212 C 
HETATM   30  O9  UNL     1      -6.092  -5.345  -0.682  1.00  0.00    -0.218 OA
HETATM   31  O8  UNL     1      -4.870  -3.769  -2.346  1.00  0.00    -0.218 OA
BRANCH  25  32
HETATM   32  C30 UNL     1      -6.507  -1.370   1.460  1.00  0.00     0.185 C 
HETATM   33  O11 UNL     1      -7.646  -1.593   2.267  1.00  0.00    -0.221 OA
ENDBRANCH  25  32
ENDBRANCH  22  23
ENDBRANCH   2  22
BRANCH   5  34
HETATM   34  C23 UNL     1      -0.878   0.775   0.933  1.00  0.00     0.209 C 
HETATM   35  O5  UNL     1      -1.697   1.663   0.899  1.00  0.00    -0.288 OA
ENDBRANCH   5  34
BRANCH  16  36
HETATM   36  C18 UNL     1       5.853   3.526   1.320  1.00  0.00    -0.009 A 
HETATM   37  C19 UNL     1       6.606   3.422   2.421  1.00  0.00     0.062 A 
HETATM   38  C20 UNL     1       6.686   4.660   2.961  1.00  0.00     0.296 A 
HETATM   39  O2  UNL     1       6.012   5.629   2.271  1.00  0.00    -0.294 OA
HETATM   40  O3  UNL     1       7.307   4.891   3.976  1.00  0.00    -0.259 OA
HETATM   41  C21 UNL     1       5.433   4.964   1.156  1.00  0.00     0.175 A 
ENDBRANCH  16  36
TORSDOF 5
