REMARK  5 active torsions:
REMARK  status: ('A' for Active; 'I' for Inactive)
REMARK    1  A    between atoms: C1_1  and  O4_25 
REMARK    2  A    between atoms: C3_3  and  O3_23 
REMARK    3  A    between atoms: C6_6  and  C7_7 
REMARK    4  A    between atoms: C7_7  and  C8_8 
REMARK    5  A    between atoms: C12_13  and  C15_17 
ROOT
HETATM    1  C1  UNL     1      -2.333  -1.009   0.021  1.00  0.00     0.094 A 
HETATM    2  C2  UNL     1      -2.245  -2.309  -0.299  1.00  0.00     0.048 A 
HETATM    3  C3  UNL     1      -1.087  -2.967  -0.475  1.00  0.00     0.101 A 
HETATM    4  C4  UNL     1       0.049  -2.232  -0.441  1.00  0.00     0.079 A 
HETATM    5  C5  UNL     1       0.010  -0.901  -0.185  1.00  0.00     0.097 A 
HETATM    6  C6  UNL     1      -1.184  -0.303   0.037  1.00  0.00     0.027 A 
HETATM    7  O1  UNL     1       1.141  -0.128  -0.099  1.00  0.00    -0.329 OA
HETATM    8  C12 UNL     1       2.306  -0.796   0.295  1.00  0.00     0.151 C 
HETATM    9  C13 UNL     1       2.510  -1.967  -0.648  1.00  0.00     0.104 C 
HETATM   10  C14 UNL     1       1.256  -2.825  -0.679  1.00  0.00     0.180 C 
HETATM   11  O2  UNL     1       1.434  -4.001  -0.912  1.00  0.00    -0.291 OA
ENDROOT
BRANCH   8  12
HETATM   12  C15 UNL     1       3.493   0.151   0.309  1.00  0.00     0.005 A 
HETATM   13  C16 UNL     1       4.279   0.262   1.396  1.00  0.00    -0.002 A 
HETATM   14  C17 UNL     1       5.326   1.101   1.412  1.00  0.00    -0.000 A 
HETATM   15  C18 UNL     1       5.605   1.845   0.331  1.00  0.00    -0.000 A 
HETATM   16  C19 UNL     1       4.834   1.743  -0.761  1.00  0.00    -0.000 A 
HETATM   17  C20 UNL     1       3.788   0.902  -0.767  1.00  0.00    -0.002 A 
ENDBRANCH   8  12
BRANCH   6  18
HETATM   18  C7  UNL     1      -1.268   1.194   0.314  1.00  0.00     0.056 C 
BRANCH  18  19
HETATM   19  C8  UNL     1      -2.033   1.928  -0.760  1.00  0.00    -0.030 C 
HETATM   20  C9  UNL     1      -2.564   3.158  -0.640  1.00  0.00    -0.048 C 
HETATM   21  C10 UNL     1      -3.332   3.797  -1.773  1.00  0.00     0.026 C 
HETATM   22  C11 UNL     1      -2.450   4.010   0.602  1.00  0.00     0.026 C 
ENDBRANCH  18  19
ENDBRANCH   6  18
BRANCH   3  23
HETATM   23  O3  UNL     1      -1.147  -4.295  -0.828  1.00  0.00    -0.328 OA
HETATM   24  C21 UNL     1      -1.174  -5.178   0.272  1.00  0.00     0.181 C 
ENDBRANCH   3  23
BRANCH   1  25
HETATM   25  O4  UNL     1      -3.561  -0.414   0.178  1.00  0.00    -0.328 OA
HETATM   26  C22 UNL     1      -4.171  -0.675   1.422  1.00  0.00     0.181 C 
ENDBRANCH   1  25
TORSDOF 5
