REMARK  2 active torsions:
REMARK  status: ('A' for Active; 'I' for Inactive)
REMARK    1  A    between atoms: C6_6  and  O1_7 
REMARK    2  A    between atoms: C9_10  and  C12_15 
ROOT
HETATM    1  C1  UNL     1      -2.769  -2.051   1.273  1.00  0.00     0.155 A 
HETATM    2  C2  UNL     1      -2.292  -3.146   0.666  1.00  0.00     0.057 A 
HETATM    3  C3  UNL     1      -1.132  -3.195  -0.005  1.00  0.00     0.136 A 
HETATM    4  C4  UNL     1      -0.412  -2.054  -0.084  1.00  0.00     0.061 A 
HETATM    5  C5  UNL     1      -0.883  -0.933   0.514  1.00  0.00     0.007 A 
HETATM    6  C6  UNL     1      -2.058  -0.905   1.196  1.00  0.00     0.116 A 
HETATM    7  C8  UNL     1      -0.096   0.371   0.464  1.00  0.00     0.036 C 
HETATM    8  C9  UNL     1       0.745   0.466  -0.806  1.00  0.00     0.065 C 
HETATM    9  C10 UNL     1       1.616  -0.773  -0.862  1.00  0.00     0.217 C 
HETATM   10  C11 UNL     1       0.785  -2.046  -0.742  1.00  0.00     0.205 C 
HETATM   11  O2  UNL     1       1.280  -3.033  -1.237  1.00  0.00    -0.289 OA
HETATM   12  O3  UNL     1       2.350  -0.708  -2.074  1.00  0.00    -0.215 OA
HETATM   13  O4  UNL     1      -0.805  -4.392  -0.574  1.00  0.00    -0.190 OA
HETATM   14  O5  UNL     1      -3.960  -2.167   1.920  1.00  0.00    -0.188 OA
ENDROOT
BRANCH   8  15
HETATM   15  C12 UNL     1       1.602   1.715  -0.910  1.00  0.00    -0.019 A 
HETATM   16  C13 UNL     1       1.547   2.491  -2.008  1.00  0.00    -0.004 A 
HETATM   17  C14 UNL     1       2.317   3.584  -2.126  1.00  0.00    -0.000 A 
HETATM   18  C15 UNL     1       3.167   3.915  -1.143  1.00  0.00    -0.000 A 
HETATM   19  C16 UNL     1       3.244   3.144  -0.049  1.00  0.00    -0.000 A 
HETATM   20  C17 UNL     1       2.469   2.054   0.060  1.00  0.00    -0.004 A 
ENDBRANCH   8  15
BRANCH   6  21
HETATM   21  O1  UNL     1      -2.421   0.287   1.786  1.00  0.00    -0.326 OA
HETATM   22  C7  UNL     1      -3.502   0.377   2.681  1.00  0.00     0.181 C 
ENDBRANCH   6  21
TORSDOF 2
