REMARK  0 active torsions:
REMARK  status: ('A' for Active; 'I' for Inactive)
ROOT
HETATM    1  C1  UNL     1      -3.508  -0.597  -1.808  1.00  0.00     0.203 C 
HETATM    2  C2  UNL     1      -3.659  -1.813  -1.232  1.00  0.00     0.032 C 
HETATM    3  C3  UNL     1      -2.699  -2.385  -0.484  1.00  0.00    -0.041 C 
HETATM    4  C4  UNL     1      -1.350  -1.713  -0.295  1.00  0.00     0.024 C 
HETATM    5  C5  UNL     1      -1.494  -0.164  -0.281  1.00  0.00     0.042 C 
HETATM    6  C6  UNL     1      -2.232   0.194  -1.585  1.00  0.00     0.213 C 
HETATM    7  O1  UNL     1      -2.613   1.559  -1.613  1.00  0.00    -0.215 OA
HETATM    8  C7  UNL     1      -0.052   0.448  -0.280  1.00  0.00     0.041 C 
HETATM    9  C8  UNL     1       0.881  -0.083   0.839  1.00  0.00     0.061 C 
HETATM   10  C9  UNL     1       0.891  -1.608   0.925  1.00  0.00     0.127 C 
HETATM   11  C10 UNL     1      -0.518  -2.211   0.902  1.00  0.00     0.034 C 
HETATM   12  O2  UNL     1       1.652  -2.253  -0.065  1.00  0.00    -0.302 OA
HETATM   13  C11 UNL     1       2.668  -1.709  -0.794  1.00  0.00     0.303 C 
HETATM   14  C12 UNL     1       2.882  -0.206  -0.670  1.00  0.00     0.240 C 
HETATM   15  C13 UNL     1       2.342   0.327   0.639  1.00  0.00     0.073 C 
HETATM   16  C14 UNL     1       2.217   1.818   0.925  1.00  0.00     0.126 C 
HETATM   17  C15 UNL     1       1.486   2.544  -0.202  1.00  0.00     0.207 C 
HETATM   18  C16 UNL     1       0.109   1.962  -0.528  1.00  0.00     0.185 C 
HETATM   19  O3  UNL     1      -0.856   2.696   0.186  1.00  0.00    -0.221 OA
HETATM   20  O4  UNL     1       2.288   2.562  -1.361  1.00  0.00    -0.218 OA
HETATM   21  O5  UNL     1       1.416   1.874   2.070  1.00  0.00    -0.356 OA
HETATM   22  C17 UNL     1       0.667   0.683   2.151  1.00  0.00     0.145 C 
HETATM   23  C18 UNL     1       3.551   2.490   1.262  1.00  0.00     0.033 C 
HETATM   24  O6  UNL     1       4.243   0.166  -0.789  1.00  0.00    -0.213 OA
HETATM   25  O7  UNL     1       3.307  -2.376  -1.581  1.00  0.00    -0.261 OA
HETATM   26  C19 UNL     1      -2.407   0.226   0.910  1.00  0.00     0.003 C 
HETATM   27  C20 UNL     1      -2.917  -3.755   0.113  1.00  0.00     0.026 C 
HETATM   28  O8  UNL     1      -4.352  -0.052  -2.483  1.00  0.00    -0.289 OA
ENDROOT
TORSDOF 0
