REMARK  5 active torsions:
REMARK  status: ('A' for Active; 'I' for Inactive)
REMARK    1  A    between atoms: C7_8  and  O5_24 
REMARK    2  A    between atoms: C8_9  and  C11_13 
REMARK    3  A    between atoms: C9_10  and  O2_11 
REMARK    4  A    between atoms: C11_13  and  C12_14 
REMARK    5  A    between atoms: C13_15  and  C14_17 
ROOT
HETATM    1  C1  UNL     1      -2.685   3.783   0.944  1.00  0.00     0.117 C 
HETATM    2  C2  UNL     1      -1.887   3.683   2.214  1.00  0.00     0.001 C 
HETATM    3  C3  UNL     1      -0.800   2.908   2.300  1.00  0.00     0.002 C 
HETATM    4  C4  UNL     1      -0.420   2.107   1.286  1.00  0.00     0.045 C 
HETATM    5  C5  UNL     1      -1.258   2.012   0.235  1.00  0.00     0.098 C 
HETATM    6  O1  UNL     1      -2.439   2.695   0.099  1.00  0.00    -0.332 OA
HETATM    7  C6  UNL     1      -0.881   1.207  -0.769  1.00  0.00     0.049 C 
HETATM    8  C7  UNL     1       0.220   0.437  -0.754  1.00  0.00     0.101 C 
HETATM    9  C8  UNL     1       0.984   0.484   0.367  1.00  0.00     0.084 C 
HETATM   10  C9  UNL     1       0.735   1.398   1.343  1.00  0.00     0.101 C 
HETATM   11  C21 UNL     1      -4.183   3.793   1.265  1.00  0.00     0.035 C 
HETATM   12  C22 UNL     1      -2.290   5.069   0.210  1.00  0.00     0.035 C 
ENDROOT
BRANCH   9  13
HETATM   13  C11 UNL     1       2.077  -0.338   0.470  1.00  0.00     0.202 C 
HETATM   14  O4  UNL     1       3.090   0.038   1.021  1.00  0.00    -0.286 OA
BRANCH  13  15
HETATM   15  C12 UNL     1       2.138  -1.621  -0.002  1.00  0.00     0.070 C 
HETATM   16  C13 UNL     1       1.108  -2.459  -0.270  1.00  0.00     0.134 C 
HETATM   17  O3  UNL     1      -0.152  -2.063   0.087  1.00  0.00    -0.190 OA
BRANCH  16  18
HETATM   18  C14 UNL     1       1.285  -3.714  -0.762  1.00  0.00     0.025 A 
HETATM   19  C15 UNL     1       0.213  -4.518  -0.944  1.00  0.00     0.002 A 
HETATM   20  C16 UNL     1       0.311  -5.763  -1.437  1.00  0.00     0.000 A 
HETATM   21  C17 UNL     1       1.506  -6.259  -1.780  1.00  0.00     0.000 A 
HETATM   22  C18 UNL     1       2.589  -5.486  -1.624  1.00  0.00     0.000 A 
HETATM   23  C19 UNL     1       2.472  -4.242  -1.130  1.00  0.00     0.002 A 
ENDBRANCH  16  18
ENDBRANCH  13  15
ENDBRANCH   9  13
BRANCH   8  24
HETATM   24  O5  UNL     1       0.591  -0.331  -1.840  1.00  0.00    -0.328 OA
HETATM   25  C20 UNL     1      -0.278  -0.477  -2.938  1.00  0.00     0.181 C 
ENDBRANCH   8  24
BRANCH  10  26
HETATM   26  O2  UNL     1       1.506   1.454   2.485  1.00  0.00    -0.328 OA
HETATM   27  C10 UNL     1       2.466   2.491   2.493  1.00  0.00     0.181 C 
ENDBRANCH  10  26
TORSDOF 5
