REMARK  3 active torsions:
REMARK  status: ('A' for Active; 'I' for Inactive)
REMARK    1  A    between atoms: C3_3  and  C15_18 
REMARK    2  A    between atoms: C8_8  and  C9_10 
REMARK    3  A    between atoms: C15_18  and  C16_19 
ROOT
HETATM    1  C1  UNL     1      -1.525  -2.469   2.353  1.00  0.00     0.131 A 
HETATM    2  C2  UNL     1      -1.948  -1.249   1.961  1.00  0.00     0.025 A 
HETATM    3  C3  UNL     1      -1.243  -0.438   1.147  1.00  0.00     0.007 A 
HETATM    4  C4  UNL     1      -0.065  -0.926   0.724  1.00  0.00     0.096 A 
HETATM    5  C5  UNL     1       0.372  -2.129   1.101  1.00  0.00     0.026 A 
HETATM    6  C6  UNL     1      -0.335  -2.918   1.913  1.00  0.00     0.029 A 
HETATM    7  C7  UNL     1       1.556  -2.265   0.498  1.00  0.00     0.027 A 
HETATM    8  C8  UNL     1       1.724  -1.121  -0.196  1.00  0.00     0.100 A 
HETATM    9  O1  UNL     1       0.746  -0.381  -0.023  1.00  0.00    -0.307 OA
HETATM   10  O4  UNL     1      -2.279  -3.241   3.183  1.00  0.00    -0.190 OA
ENDROOT
BRANCH   8  11
HETATM   11  C9  UNL     1       2.770  -0.780  -0.978  1.00  0.00     0.027 A 
HETATM   12  C10 UNL     1       2.790   0.403  -1.623  1.00  0.00     0.029 A 
HETATM   13  C11 UNL     1       3.808   0.782  -2.414  1.00  0.00     0.133 A 
HETATM   14  C12 UNL     1       4.842  -0.062  -2.554  1.00  0.00     0.055 A 
HETATM   15  O3  UNL     1       3.802   1.981  -3.058  1.00  0.00    -0.190 OA
HETATM   16  C13 UNL     1       4.877  -1.252  -1.933  1.00  0.00     0.133 A 
HETATM   17  C14 UNL     1       3.834  -1.588  -1.155  1.00  0.00     0.029 A 
HETATM   18  O2  UNL     1       5.934  -2.095  -2.086  1.00  0.00    -0.190 OA
ENDBRANCH   8  11
BRANCH   3  19
HETATM   19  C15 UNL     1      -1.668   0.945   0.692  1.00  0.00     0.054 C 
BRANCH  19  20
HETATM   20  C16 UNL     1      -3.024   1.471   1.093  1.00  0.00    -0.030 C 
HETATM   21  C17 UNL     1      -3.698   2.457   0.471  1.00  0.00    -0.048 C 
HETATM   22  C18 UNL     1      -5.048   2.921   0.970  1.00  0.00     0.026 C 
HETATM   23  C19 UNL     1      -3.194   3.206  -0.741  1.00  0.00     0.026 C 
ENDBRANCH  19  20
ENDBRANCH   3  19
TORSDOF 3
