REMARK  8 active torsions:
REMARK  status: ('A' for Active; 'I' for Inactive)
REMARK    1  A    between atoms: C2_2  and  O5_23 
REMARK    2  A    between atoms: C4_4  and  C7_7 
REMARK    3  A    between atoms: C7_7  and  C8_8 
REMARK    4  A    between atoms: C7_7  and  O4_20 
REMARK    5  A    between atoms: C8_8  and  C9_9 
REMARK    6  A    between atoms: C8_8  and  C10_11 
REMARK    7  A    between atoms: C12_13  and  O3_18 
REMARK    8  A    between atoms: O4_20  and  C17_21 
ROOT
HETATM    1  C7  UNL     1       0.416   0.343   0.302  1.00  0.00     0.144 C 
ENDROOT
BRANCH   1   2
HETATM    2  C4  UNL     1       1.347   1.502  -0.025  1.00  0.00     0.007 A 
HETATM    3  C3  UNL     1       2.680   1.334  -0.069  1.00  0.00     0.024 A 
HETATM    4  C2  UNL     1       3.546   2.333  -0.333  1.00  0.00     0.119 A 
HETATM    5  C1  UNL     1       3.026   3.552  -0.596  1.00  0.00     0.153 A 
HETATM    6  C6  UNL     1       1.696   3.734  -0.560  1.00  0.00     0.029 A 
HETATM    7  O6  UNL     1       3.837   4.606  -0.889  1.00  0.00    -0.188 OA
HETATM    8  C5  UNL     1       0.860   2.727  -0.277  1.00  0.00     0.000 A 
BRANCH   4   9
HETATM    9  O5  UNL     1       4.911   2.182  -0.403  1.00  0.00    -0.326 OA
HETATM   10  C19 UNL     1       5.445   0.883  -0.512  1.00  0.00     0.181 C 
ENDBRANCH   4   9
ENDBRANCH   1   2
BRANCH   1  11
HETATM   11  C8  UNL     1      -0.430  -0.067  -0.918  1.00  0.00     0.087 C 
BRANCH  11  12
HETATM   12  C9  UNL     1       0.396  -0.328  -2.182  1.00  0.00     0.189 C 
HETATM   13  O1  UNL     1       1.423  -1.267  -1.942  1.00  0.00    -0.220 OA
ENDBRANCH  11  12
BRANCH  11  14
HETATM   14  C10 UNL     1      -1.346  -1.241  -0.596  1.00  0.00    -0.015 A 
HETATM   15  C11 UNL     1      -2.682  -1.129  -0.691  1.00  0.00     0.022 A 
HETATM   16  C12 UNL     1      -3.561  -2.116  -0.417  1.00  0.00     0.119 A 
HETATM   17  C13 UNL     1      -3.045  -3.301  -0.015  1.00  0.00     0.153 A 
HETATM   18  C14 UNL     1      -1.710  -3.430   0.085  1.00  0.00     0.029 A 
HETATM   19  O2  UNL     1      -3.802  -4.388   0.297  1.00  0.00    -0.188 OA
HETATM   20  C15 UNL     1      -0.868  -2.427  -0.194  1.00  0.00    -0.002 A 
BRANCH  16  21
HETATM   21  O3  UNL     1      -4.894  -1.804  -0.569  1.00  0.00    -0.326 OA
HETATM   22  C16 UNL     1      -5.897  -2.739  -0.255  1.00  0.00     0.181 C 
ENDBRANCH  16  21
ENDBRANCH  11  14
ENDBRANCH   1  11
BRANCH   1  23
HETATM   23  O4  UNL     1      -0.467   0.660   1.359  1.00  0.00    -0.352 OA
BRANCH  23  24
HETATM   24  C17 UNL     1       0.186   0.879   2.586  1.00  0.00     0.143 C 
HETATM   25  C18 UNL     1      -0.865   1.206   3.643  1.00  0.00     0.035 C 
ENDBRANCH  23  24
ENDBRANCH   1  23
TORSDOF 8
