REMARK  4 active torsions:
REMARK  status: ('A' for Active; 'I' for Inactive)
REMARK    1  A    between atoms: O1_2  and  C2_3 
REMARK    2  A    between atoms: C3_4  and  O2_5 
REMARK    3  A    between atoms: C7_9  and  C9_11 
REMARK    4  A    between atoms: C10_12  and  C11_13 
ROOT
HETATM    1  C2  UNL     1       0.993   0.344   0.063  1.00  0.00     0.116 A 
HETATM    2  C3  UNL     1       0.558   1.611   0.263  1.00  0.00     0.116 A 
HETATM    3  C5  UNL     1      -0.761   1.791   0.458  1.00  0.00     0.026 A 
HETATM    4  C6  UNL     1      -1.630   0.771   0.466  1.00  0.00     0.002 A 
HETATM    5  C7  UNL     1      -1.236  -0.498   0.246  1.00  0.00     0.002 A 
HETATM    6  C8  UNL     1       0.087  -0.656   0.070  1.00  0.00     0.026 A 
ENDROOT
BRANCH   5   7
HETATM    7  C9  UNL     1      -2.177  -1.468   0.260  1.00  0.00     0.004 C 
HETATM    8  C10 UNL     1      -2.232  -2.783  -0.030  1.00  0.00     0.045 C 
BRANCH   8   9
HETATM    9  C11 UNL     1      -1.325  -3.649  -0.549  1.00  0.00     0.234 C 
HETATM   10  O3  UNL     1      -0.205  -3.438  -0.940  1.00  0.00    -0.283 OA
ENDBRANCH   8   9
ENDBRANCH   5   7
BRANCH   1  11
HETATM   11  O1  UNL     1       2.346   0.164  -0.130  1.00  0.00    -0.326 OA
HETATM   12  C1  UNL     1       2.848  -1.127  -0.389  1.00  0.00     0.181 C 
ENDBRANCH   1  11
BRANCH   2  13
HETATM   13  O2  UNL     1       1.484   2.630   0.231  1.00  0.00    -0.326 OA
HETATM   14  C4  UNL     1       1.030   3.963   0.196  1.00  0.00     0.181 C 
ENDBRANCH   2  13
TORSDOF 4
