REMARK  2 active torsions:
REMARK  status: ('A' for Active; 'I' for Inactive)
REMARK    1  A    between atoms: C16_18  and  C19_21 
REMARK    2  A    between atoms: C19_21  and  C20_22 
ROOT
HETATM    1  C1  UNL     1      -5.947  -2.563   1.098  1.00  0.00     0.035 C 
HETATM    2  C2  UNL     1      -5.873  -3.892   0.980  1.00  0.00     0.012 C 
HETATM    3  C3  UNL     1      -4.693  -4.693   1.424  1.00  0.00     0.202 C 
HETATM    4  C4  UNL     1      -3.440  -3.846   1.586  1.00  0.00     0.156 A 
HETATM    5  C5  UNL     1      -3.514  -2.330   1.844  1.00  0.00     0.083 C 
HETATM    6  C6  UNL     1      -4.932  -1.781   1.541  1.00  0.00     0.174 C 
HETATM    7  O1  UNL     1      -5.164  -0.596   1.644  1.00  0.00    -0.291 OA
HETATM    8  C7  UNL     1      -2.559  -1.502   0.905  1.00  0.00     0.009 C 
HETATM    9  C8  UNL     1      -1.304  -2.220   0.342  1.00  0.00     0.003 C 
HETATM   10  C9  UNL     1      -0.976  -3.462   1.179  1.00  0.00     0.032 C 
HETATM   11  C10 UNL     1      -2.159  -4.406   1.237  1.00  0.00     0.143 A 
HETATM   12  O2  UNL     1      -2.468  -4.668   2.577  1.00  0.00    -0.353 OA
HETATM   13  C11 UNL     1      -0.003  -1.395   0.144  1.00  0.00     0.000 C 
HETATM   14  C12 UNL     1      -0.049   0.161   0.076  1.00  0.00     0.002 C 
HETATM   15  C13 UNL     1      -1.469   0.694   0.337  1.00  0.00     0.000 C 
HETATM   16  C14 UNL     1      -2.176  -0.111   1.434  1.00  0.00     0.001 C 
HETATM   17  C15 UNL     1       0.875   0.736   1.181  1.00  0.00     0.000 C 
HETATM   18  C16 UNL     1       0.473   0.490  -1.356  1.00  0.00     0.030 C 
HETATM   19  C17 UNL     1       1.506  -0.617  -1.619  1.00  0.00     0.003 C 
HETATM   20  C18 UNL     1       0.785  -1.865  -1.101  1.00  0.00     0.000 C 
HETATM   21  C28 UNL     1      -3.287  -2.033   3.345  1.00  0.00     0.010 C 
HETATM   22  O6  UNL     1      -5.026  -5.302   2.672  1.00  0.00    -0.216 OA
ENDROOT
BRANCH  18  23
HETATM   23  C19 UNL     1       0.914   1.917  -1.754  1.00  0.00     0.152 C 
HETATM   24  O5  UNL     1       0.020   2.816  -1.151  1.00  0.00    -0.224 OA
HETATM   25  C27 UNL     1       0.714   2.117  -3.268  1.00  0.00     0.035 C 
BRANCH  23  26
HETATM   26  C20 UNL     1       2.353   2.298  -1.345  1.00  0.00     0.152 C 
HETATM   27  O3  UNL     1       3.270   1.757  -2.248  1.00  0.00    -0.302 OA
HETATM   28  C21 UNL     1       4.424   2.356  -2.643  1.00  0.00     0.271 C 
HETATM   29  C22 UNL     1       4.890   3.603  -1.898  1.00  0.00     0.086 C 
HETATM   30  O4  UNL     1       5.101   1.881  -3.531  1.00  0.00    -0.264 OA
HETATM   31  C23 UNL     1       4.019   4.027  -0.710  1.00  0.00     0.012 C 
HETATM   32  C26 UNL     1       6.365   3.448  -1.487  1.00  0.00     0.010 C 
HETATM   33  C24 UNL     1       2.564   3.791  -1.119  1.00  0.00     0.033 C 
HETATM   34  C25 UNL     1       4.228   5.490  -0.286  1.00  0.00     0.001 C 
ENDBRANCH  23  26
ENDBRANCH  18  23
TORSDOF 2
