REMARK  10 active torsions:
REMARK  status: ('A' for Active; 'I' for Inactive)
REMARK    1  A    between atoms: C2_2  and  C16_19 
REMARK    2  A    between atoms: C4_4  and  C7_7 
REMARK    3  A    between atoms: C7_7  and  C8_8 
REMARK    4  A    between atoms: C9_9  and  C10_10 
REMARK    5  A    between atoms: C16_19  and  C17_20 
REMARK    6  A    between atoms: C18_21  and  C20_23 
REMARK    7  A    between atoms: C20_23  and  O4_24 
REMARK    8  A    between atoms: O4_24  and  C21_25 
REMARK    9  A    between atoms: C21_25  and  C22_27 
REMARK   10  A    between atoms: C23_28  and  C24_29 
ROOT
HETATM    1  C1  UNL     1      -1.265  -1.099  -1.036  1.00  0.00     0.129 A 
HETATM    2  C2  UNL     1      -0.944  -1.699   0.128  1.00  0.00     0.033 A 
HETATM    3  C3  UNL     1      -1.886  -2.266   0.918  1.00  0.00     0.132 A 
HETATM    4  C4  UNL     1      -3.193  -2.187   0.569  1.00  0.00     0.064 A 
HETATM    5  C5  UNL     1      -3.498  -1.599  -0.603  1.00  0.00     0.007 A 
HETATM    6  C6  UNL     1      -2.557  -1.065  -1.389  1.00  0.00     0.027 A 
HETATM    7  O3  UNL     1      -1.473  -2.823   2.095  1.00  0.00    -0.190 OA
HETATM    8  O7  UNL     1      -0.334  -0.541  -1.858  1.00  0.00    -0.190 OA
ENDROOT
BRANCH   2   9
HETATM    9  C16 UNL     1       0.514  -1.718   0.562  1.00  0.00     0.056 C 
BRANCH   9  10
HETATM   10  C17 UNL     1       1.154  -3.079   0.436  1.00  0.00    -0.027 C 
HETATM   11  C18 UNL     1       2.432  -3.332   0.095  1.00  0.00    -0.018 C 
HETATM   12  C19 UNL     1       2.952  -4.749   0.030  1.00  0.00     0.029 C 
BRANCH  11  13
HETATM   13  C20 UNL     1       3.432  -2.257  -0.280  1.00  0.00     0.174 C 
BRANCH  13  14
HETATM   14  O4  UNL     1       3.488  -1.226   0.685  1.00  0.00    -0.294 OA
BRANCH  14  15
HETATM   15  C21 UNL     1       4.075  -0.024   0.371  1.00  0.00     0.296 C 
HETATM   16  O5  UNL     1       3.964   0.860   1.194  1.00  0.00    -0.259 OA
BRANCH  15  17
HETATM   17  C22 UNL     1       4.841   0.198  -0.735  1.00  0.00     0.068 C 
HETATM   18  C23 UNL     1       5.379   1.336  -1.218  1.00  0.00     0.005 C 
BRANCH  18  19
HETATM   19  C24 UNL     1       5.202   2.651  -0.967  1.00  0.00     0.000 A 
HETATM   20  C25 UNL     1       6.081   3.532  -1.491  1.00  0.00     0.002 A 
HETATM   21  C26 UNL     1       5.952   4.858  -1.328  1.00  0.00     0.027 A 
HETATM   22  C27 UNL     1       4.918   5.379  -0.650  1.00  0.00     0.131 A 
HETATM   23  C28 UNL     1       4.014   4.515  -0.162  1.00  0.00     0.027 A 
HETATM   24  O6  UNL     1       4.764   6.721  -0.495  1.00  0.00    -0.190 OA
HETATM   25  C29 UNL     1       4.150   3.189  -0.323  1.00  0.00     0.002 A 
ENDBRANCH  18  19
ENDBRANCH  15  17
ENDBRANCH  14  15
ENDBRANCH  13  14
ENDBRANCH  11  13
ENDBRANCH   9  10
ENDBRANCH   2   9
BRANCH   4  26
HETATM   26  C7  UNL     1      -4.179  -2.752   1.332  1.00  0.00     0.198 C 
HETATM   27  O2  UNL     1      -3.896  -3.625   2.123  1.00  0.00    -0.286 OA
BRANCH  26  28
HETATM   28  C8  UNL     1      -5.514  -2.487   1.222  1.00  0.00     0.042 C 
HETATM   29  C9  UNL     1      -6.198  -1.416   0.771  1.00  0.00     0.003 C 
BRANCH  29  30
HETATM   30  C10 UNL     1      -5.834  -0.133   0.554  1.00  0.00     0.000 A 
HETATM   31  C11 UNL     1      -6.691   0.708  -0.058  1.00  0.00     0.002 A 
HETATM   32  C12 UNL     1      -6.392   2.001  -0.264  1.00  0.00     0.027 A 
HETATM   33  C13 UNL     1      -5.229   2.526   0.153  1.00  0.00     0.131 A 
HETATM   34  C14 UNL     1      -4.392   1.708   0.811  1.00  0.00     0.027 A 
HETATM   35  O1  UNL     1      -4.922   3.837  -0.038  1.00  0.00    -0.190 OA
HETATM   36  C15 UNL     1      -4.694   0.417   1.016  1.00  0.00     0.002 A 
ENDBRANCH  29  30
ENDBRANCH  26  28
ENDBRANCH   4  26
TORSDOF 10
