REMARK  8 active torsions:
REMARK  status: ('A' for Active; 'I' for Inactive)
REMARK    1  A    between atoms: C1_1  and  O9_32 
REMARK    2  A    between atoms: C2_2  and  O8_30 
REMARK    3  A    between atoms: C3_3  and  O7_28 
REMARK    4  A    between atoms: C5_5  and  C7_7 
REMARK    5  A    between atoms: C12_14  and  C13_15 
REMARK    6  A    between atoms: C15_17  and  O5_25 
REMARK    7  A    between atoms: C16_18  and  O4_23 
REMARK    8  A    between atoms: C17_19  and  O3_21 
ROOT
HETATM    1  C7  UNL     1      -1.088  -2.024  -1.473  1.00  0.00     0.149 A 
HETATM    2  O1  UNL     1       0.174  -2.593  -1.194  1.00  0.00    -0.300 OA
HETATM    3  C8  UNL     1       1.188  -1.697  -1.256  1.00  0.00     0.275 A 
HETATM    4  C9  UNL     1       0.639  -0.357  -1.675  1.00  0.00     0.123 A 
HETATM    5  C10 UNL     1      -0.861  -0.567  -1.889  1.00  0.00     0.074 A 
HETATM    6  C11 UNL     1      -1.499   0.584  -1.108  1.00  0.00     0.146 C 
HETATM    7  O2  UNL     1      -0.465   1.504  -0.851  1.00  0.00    -0.352 OA
HETATM    8  C12 UNL     1       0.692   0.737  -0.614  1.00  0.00     0.147 C 
HETATM    9  O6  UNL     1       2.347  -1.938  -1.004  1.00  0.00    -0.264 OA
ENDROOT
BRANCH   1  10
HETATM   10  C5  UNL     1      -2.040  -2.251  -0.309  1.00  0.00     0.009 A 
HETATM   11  C4  UNL     1      -3.261  -2.776  -0.480  1.00  0.00     0.024 A 
HETATM   12  C3  UNL     1      -4.131  -2.983   0.530  1.00  0.00     0.118 A 
HETATM   13  C2  UNL     1      -3.744  -2.633   1.785  1.00  0.00     0.138 A 
HETATM   14  C1  UNL     1      -2.502  -2.126   1.995  1.00  0.00     0.118 A 
HETATM   15  C6  UNL     1      -1.683  -1.946   0.945  1.00  0.00     0.024 A 
BRANCH  12  16
HETATM   16  O7  UNL     1      -5.374  -3.533   0.314  1.00  0.00    -0.326 OA
HETATM   17  C22 UNL     1      -5.728  -4.022  -0.958  1.00  0.00     0.181 C 
ENDBRANCH  12  16
BRANCH  13  18
HETATM   18  O8  UNL     1      -4.501  -2.769   2.933  1.00  0.00    -0.324 OA
HETATM   19  C23 UNL     1      -5.737  -3.439   2.952  1.00  0.00     0.182 C 
ENDBRANCH  13  18
BRANCH  14  20
HETATM   20  O9  UNL     1      -2.157  -1.765   3.281  1.00  0.00    -0.326 OA
HETATM   21  C24 UNL     1      -1.070  -0.887   3.475  1.00  0.00     0.181 C 
ENDBRANCH  14  20
ENDBRANCH   1  10
BRANCH   8  22
HETATM   22  C13 UNL     1       1.978   1.540  -0.660  1.00  0.00     0.009 A 
HETATM   23  C14 UNL     1       3.018   1.204   0.117  1.00  0.00     0.024 A 
HETATM   24  C15 UNL     1       4.183   1.878   0.101  1.00  0.00     0.118 A 
HETATM   25  C16 UNL     1       4.276   2.963  -0.704  1.00  0.00     0.138 A 
HETATM   26  C17 UNL     1       3.273   3.293  -1.552  1.00  0.00     0.118 A 
HETATM   27  C18 UNL     1       2.133   2.581  -1.491  1.00  0.00     0.024 A 
BRANCH  24  28
HETATM   28  O5  UNL     1       5.264   1.565   0.895  1.00  0.00    -0.326 OA
HETATM   29  C21 UNL     1       5.124   0.581   1.893  1.00  0.00     0.181 C 
ENDBRANCH  24  28
BRANCH  25  30
HETATM   30  O4  UNL     1       5.464   3.656  -0.765  1.00  0.00    -0.324 OA
HETATM   31  C20 UNL     1       5.539   4.742   0.132  1.00  0.00     0.182 C 
ENDBRANCH  25  30
BRANCH  26  32
HETATM   32  O3  UNL     1       3.455   4.381  -2.377  1.00  0.00    -0.326 OA
HETATM   33  C19 UNL     1       2.333   4.958  -3.006  1.00  0.00     0.181 C 
ENDBRANCH  26  32
ENDBRANCH   8  22
TORSDOF 8
