REMARK  0 active torsions:
REMARK  status: ('A' for Active; 'I' for Inactive)
ROOT
HETATM    1  C1  UNL     1      -5.452  -2.252   0.299  1.00  0.00     0.035 C 
HETATM    2  C2  UNL     1      -5.683  -3.229   1.187  1.00  0.00     0.012 C 
HETATM    3  C3  UNL     1      -4.811  -3.504   2.378  1.00  0.00     0.202 C 
HETATM    4  C4  UNL     1      -3.489  -2.793   2.153  1.00  0.00     0.156 A 
HETATM    5  C5  UNL     1      -3.520  -1.354   1.639  1.00  0.00     0.083 C 
HETATM    6  C6  UNL     1      -4.442  -1.347   0.401  1.00  0.00     0.174 C 
HETATM    7  O1  UNL     1      -4.313  -0.517  -0.473  1.00  0.00    -0.291 OA
HETATM    8  C7  UNL     1      -2.124  -0.767   1.271  1.00  0.00     0.009 C 
HETATM    9  C8  UNL     1      -1.295  -1.800   0.494  1.00  0.00     0.003 C 
HETATM   10  C9  UNL     1      -1.105  -3.095   1.302  1.00  0.00     0.032 C 
HETATM   11  C10 UNL     1      -2.317  -3.620   2.053  1.00  0.00     0.143 A 
HETATM   12  O2  UNL     1      -2.441  -3.025   3.325  1.00  0.00    -0.353 OA
HETATM   13  C11 UNL     1       0.040  -1.222  -0.025  1.00  0.00     0.003 C 
HETATM   14  C12 UNL     1       0.898  -0.390   0.955  1.00  0.00     0.005 C 
HETATM   15  C13 UNL     1      -0.024   0.541   1.788  1.00  0.00     0.000 C 
HETATM   16  C14 UNL     1      -1.262  -0.153   2.389  1.00  0.00     0.001 C 
HETATM   17  C15 UNL     1       1.800   0.472   0.015  1.00  0.00     0.058 C 
HETATM   18  C16 UNL     1       0.875   0.819  -1.161  1.00  0.00     0.120 C 
HETATM   19  C17 UNL     1      -0.167  -0.303  -1.244  1.00  0.00     0.030 C 
HETATM   20  O3  UNL     1       1.465   0.945  -2.420  1.00  0.00    -0.335 OA
HETATM   21  C18 UNL     1       2.716   1.580  -2.502  1.00  0.00     0.226 C 
HETATM   22  C19 UNL     1       3.692   1.110  -1.428  1.00  0.00     0.231 C 
HETATM   23  C20 UNL     1       3.164  -0.004  -0.514  1.00  0.00     0.162 C 
HETATM   24  O4  UNL     1       3.001  -1.166  -1.280  1.00  0.00    -0.223 OA
HETATM   25  C21 UNL     1       4.249  -0.305   0.530  1.00  0.00     0.036 C 
HETATM   26  O5  UNL     1       4.104   2.199  -0.632  1.00  0.00    -0.215 OA
HETATM   27  O6  UNL     1       3.182   1.092  -3.752  1.00  0.00    -0.278 OA
HETATM   28  C22 UNL     1       2.931   1.950  -4.774  1.00  0.00     0.273 C 
HETATM   29  C23 UNL     1       2.227   3.171  -4.220  1.00  0.00     0.091 C 
HETATM   30  C24 UNL     1       2.595   3.087  -2.735  1.00  0.00     0.064 C 
HETATM   31  C25 UNL     1       1.652   3.888  -1.833  1.00  0.00     0.006 C 
HETATM   32  C26 UNL     1       2.643   4.481  -4.895  1.00  0.00     0.011 C 
HETATM   33  O7  UNL     1       3.237   1.764  -5.931  1.00  0.00    -0.264 OA
HETATM   34  C27 UNL     1       1.700  -1.240   1.954  1.00  0.00     0.000 C 
HETATM   35  C28 UNL     1      -4.226  -0.402   2.632  1.00  0.00     0.010 C 
HETATM   36  O8  UNL     1      -5.432  -3.087   3.589  1.00  0.00    -0.216 OA
ENDROOT
TORSDOF 0
