REMARK  3 active torsions:
REMARK  status: ('A' for Active; 'I' for Inactive)
REMARK    1  A    between atoms: C4_4  and  C13_17 
REMARK    2  A    between atoms: C13_17  and  C14_18 
REMARK    3  A    between atoms: C15_19  and  C16_20 
ROOT
HETATM    1  C1  UNL     1      -2.701  -1.231   0.746  1.00  0.00     0.095 A 
HETATM    2  C2  UNL     1      -2.613  -2.558   0.864  1.00  0.00     0.024 A 
HETATM    3  C3  UNL     1      -1.409  -3.127   0.687  1.00  0.00     0.007 A 
HETATM    4  C4  UNL     1      -0.281  -2.423   0.427  1.00  0.00     0.064 A 
HETATM    5  C5  UNL     1      -0.388  -1.077   0.292  1.00  0.00     0.132 A 
HETATM    6  C6  UNL     1      -1.604  -0.530   0.455  1.00  0.00     0.033 A 
HETATM    7  C7  UNL     1      -1.959   0.916   0.303  1.00  0.00     0.116 A 
HETATM    8  C8  UNL     1      -3.458   0.822   0.600  1.00  0.00     0.246 A 
HETATM    9  O1  UNL     1      -3.728  -0.560   0.844  1.00  0.00    -0.305 OA
HETATM   10  O2  UNL     1      -4.141   1.323  -0.525  1.00  0.00    -0.333 OA
HETATM   11  C9  UNL     1      -3.260   2.137  -1.241  1.00  0.00     0.124 C 
HETATM   12  C10 UNL     1      -1.925   1.419  -1.129  1.00  0.00     0.186 C 
HETATM   13  O3  UNL     1      -0.816   2.252  -1.336  1.00  0.00    -0.220 OA
HETATM   14  C11 UNL     1      -3.733   2.221  -2.695  1.00  0.00     0.032 C 
HETATM   15  C12 UNL     1      -3.248   3.543  -0.626  1.00  0.00     0.032 C 
HETATM   16  O4  UNL     1       0.603  -0.246  -0.133  1.00  0.00    -0.190 OA
ENDROOT
BRANCH   4  17
HETATM   17  C13 UNL     1       0.871  -3.147   0.262  1.00  0.00     0.198 C 
HETATM   18  O5  UNL     1       0.775  -4.329  -0.002  1.00  0.00    -0.286 OA
BRANCH  17  19
HETATM   19  C14 UNL     1       2.159  -2.704   0.354  1.00  0.00     0.042 C 
HETATM   20  C15 UNL     1       2.626  -1.602   0.967  1.00  0.00     0.003 C 
BRANCH  20  21
HETATM   21  C16 UNL     1       3.902  -1.160   1.021  1.00  0.00     0.000 A 
HETATM   22  C17 UNL     1       4.176  -0.054   1.746  1.00  0.00     0.000 A 
HETATM   23  C18 UNL     1       5.418   0.447   1.834  1.00  0.00     0.000 A 
HETATM   24  C19 UNL     1       6.430  -0.148   1.189  1.00  0.00     0.000 A 
HETATM   25  C20 UNL     1       6.183  -1.244   0.458  1.00  0.00     0.000 A 
HETATM   26  C21 UNL     1       4.936  -1.738   0.378  1.00  0.00     0.000 A 
ENDBRANCH  20  21
ENDBRANCH  17  19
ENDBRANCH   4  17
TORSDOF 3
