REMARK  1 active torsions:
REMARK  status: ('A' for Active; 'I' for Inactive)
REMARK    1  A    between atoms: C15_18  and  C21_26 
ROOT
HETATM    1  C1  UNL     1      -3.743   0.147   3.236  1.00  0.00     0.102 C 
HETATM    2  C2  UNL     1      -3.774  -1.265   3.814  1.00  0.00     0.182 C 
HETATM    3  C3  UNL     1      -2.560  -1.343   4.707  1.00  0.00     0.208 C 
HETATM    4  C4  UNL     1      -1.480  -1.642   3.688  1.00  0.00     0.210 C 
HETATM    5  C5  UNL     1      -1.125  -0.357   2.914  1.00  0.00     0.086 C 
HETATM    6  C6  UNL     1      -2.392   0.486   2.612  1.00  0.00     0.155 C 
HETATM    7  O1  UNL     1      -2.312   1.468   1.906  1.00  0.00    -0.296 OA
HETATM    8  C7  UNL     1      -0.456  -0.699   1.542  1.00  0.00     0.014 C 
HETATM    9  C8  UNL     1      -0.304  -2.212   1.281  1.00  0.00     0.003 C 
HETATM   10  C9  UNL     1      -1.674  -2.889   1.455  1.00  0.00     0.033 C 
HETATM   11  C10 UNL     1      -2.256  -2.651   2.849  1.00  0.00     0.151 C 
HETATM   12  O2  UNL     1      -3.578  -2.187   2.765  1.00  0.00    -0.348 OA
HETATM   13  C11 UNL     1       0.312  -2.521  -0.101  1.00  0.00     0.007 C 
HETATM   14  C12 UNL     1       0.562  -1.264  -0.955  1.00  0.00     0.057 C 
HETATM   15  C13 UNL     1       1.427  -0.317  -0.146  1.00  0.00     0.187 C 
HETATM   16  C14 UNL     1       0.887  -0.006   1.251  1.00  0.00     0.057 C 
HETATM   17  O3  UNL     1       1.665   0.893  -0.815  1.00  0.00    -0.332 OA
HETATM   18  C15 UNL     1       1.744   0.867  -2.215  1.00  0.00     0.173 C 
HETATM   19  C16 UNL     1       2.091  -0.498  -2.829  1.00  0.00     0.156 C 
HETATM   20  C17 UNL     1       1.627  -1.679  -1.972  1.00  0.00     0.062 C 
HETATM   21  C18 UNL     1       2.558  -2.103  -0.840  1.00  0.00     0.120 C 
HETATM   22  C19 UNL     1       1.732  -3.134  -0.061  1.00  0.00     0.030 C 
HETATM   23  O4  UNL     1       2.679  -0.960  -0.047  1.00  0.00    -0.337 OA
HETATM   24  C20 UNL     1       3.582  -0.598  -3.169  1.00  0.00     0.036 C 
HETATM   25  O5  UNL     1       1.409  -0.628  -4.053  1.00  0.00    -0.223 OA
HETATM   26  C27 UNL     1      -0.278   0.558   3.830  1.00  0.00     0.010 C 
HETATM   27  O8  UNL     1      -0.356  -2.251   4.286  1.00  0.00    -0.215 OA
HETATM   28  O9  UNL     1      -2.485  -1.136   5.895  1.00  0.00    -0.291 OA
ENDROOT
BRANCH  18  29
HETATM   29  C21 UNL     1       0.513   1.573  -2.809  1.00  0.00     0.154 A 
HETATM   30  O6  UNL     1       0.749   1.851  -4.160  1.00  0.00    -0.302 OA
HETATM   31  C22 UNL     1       0.591   3.155  -4.484  1.00  0.00     0.271 A 
HETATM   32  C23 UNL     1       0.168   3.934  -3.260  1.00  0.00     0.089 A 
HETATM   33  O7  UNL     1       0.775   3.612  -5.590  1.00  0.00    -0.264 OA
HETATM   34  C24 UNL     1       0.153   2.899  -2.129  1.00  0.00     0.040 A 
HETATM   35  C26 UNL     1       1.115   5.109  -2.982  1.00  0.00     0.011 C 
HETATM   36  C25 UNL     1      -1.199   2.833  -1.402  1.00  0.00     0.003 C 
ENDBRANCH  18  29
TORSDOF 1
