REMARK  3 active torsions:
REMARK  status: ('A' for Active; 'I' for Inactive)
REMARK    1  A    between atoms: C7_7  and  O3_14 
REMARK    2  A    between atoms: O3_14  and  C12_15 
REMARK    3  A    between atoms: C12_15  and  C13_17 
ROOT
HETATM    1  C1  UNL     1      -2.974   0.350  -1.806  1.00  0.00     0.206 A 
HETATM    2  C2  UNL     1      -3.207  -1.108  -1.910  1.00  0.00     0.198 C 
HETATM    3  C3  UNL     1      -2.207  -1.864  -1.373  1.00  0.00     0.013 C 
HETATM    4  C4  UNL     1      -1.616  -1.364  -0.270  1.00  0.00     0.003 C 
HETATM    5  C5  UNL     1      -0.265  -1.700   0.289  1.00  0.00     0.153 C 
HETATM    6  C6  UNL     1       0.810  -1.113  -0.646  1.00  0.00     0.087 C 
HETATM    7  C7  UNL     1       1.145   0.389  -0.537  1.00  0.00     0.134 C 
HETATM    8  C8  UNL     1       0.644   1.308  -1.678  1.00  0.00     0.064 C 
HETATM    9  C9  UNL     1      -0.832   1.761  -1.854  1.00  0.00     0.157 C 
HETATM   10  C10 UNL     1      -1.730   0.638  -2.400  1.00  0.00     0.178 A 
HETATM   11  O1  UNL     1      -2.998   1.149  -3.119  1.00  0.00    -0.343 OA
HETATM   12  C11 UNL     1      -1.351   2.486  -0.608  1.00  0.00     0.036 C 
HETATM   13  O2  UNL     1      -0.778   2.753  -2.870  1.00  0.00    -0.223 OA
HETATM   14  C16 UNL     1       1.900  -2.137  -0.426  1.00  0.00     0.046 C 
HETATM   15  C17 UNL     1       1.335  -3.216   0.170  1.00  0.00     0.292 C 
HETATM   16  O5  UNL     1       0.023  -3.062   0.511  1.00  0.00    -0.296 OA
HETATM   17  O6  UNL     1       1.928  -4.253   0.383  1.00  0.00    -0.259 OA
HETATM   18  C18 UNL     1       3.182  -2.074  -0.810  1.00  0.00     0.001 C 
HETATM   19  C19 UNL     1      -1.764  -3.091  -2.134  1.00  0.00     0.034 C 
HETATM   20  O7  UNL     1      -3.940  -1.529  -2.778  1.00  0.00    -0.289 OA
ENDROOT
BRANCH   7  21
HETATM   21  O3  UNL     1       0.810   0.959   0.692  1.00  0.00    -0.304 OA
BRANCH  21  22
HETATM   22  C12 UNL     1       1.571   0.648   1.777  1.00  0.00     0.271 C 
HETATM   23  O4  UNL     1       2.482  -0.147   1.768  1.00  0.00    -0.264 OA
BRANCH  22  24
HETATM   24  C13 UNL     1       1.129   1.441   3.000  1.00  0.00     0.086 C 
HETATM   25  C14 UNL     1       0.252   0.564   3.905  1.00  0.00     0.010 C 
HETATM   26  C15 UNL     1       2.347   1.978   3.769  1.00  0.00     0.010 C 
ENDBRANCH  22  24
ENDBRANCH  21  22
ENDBRANCH   7  21
TORSDOF 3
