REMARK  7 active torsions:
REMARK  status: ('A' for Active; 'I' for Inactive)
REMARK    1  A    between atoms: C6_7  and  C17_22 
REMARK    2  A    between atoms: C9_10  and  O2_11 
REMARK    3  A    between atoms: O2_11  and  C10_12 
REMARK    4  A    between atoms: C17_22  and  C18_23 
REMARK    5  A    between atoms: C17_22  and  C20_27 
REMARK    6  A    between atoms: C18_23  and  C19_24 
REMARK    7  A    between atoms: C20_27  and  C21_28 
ROOT
HETATM    1  C1  UNL     1      -3.500  -0.276  -0.658  1.00  0.00     0.117 C 
HETATM    2  C2  UNL     1      -3.439  -1.732  -0.304  1.00  0.00     0.001 C 
HETATM    3  C3  UNL     1      -2.276  -2.304   0.023  1.00  0.00     0.002 C 
HETATM    4  C4  UNL     1      -1.143  -1.586   0.159  1.00  0.00     0.045 A 
HETATM    5  C5  UNL     1      -1.228  -0.239   0.104  1.00  0.00     0.094 A 
HETATM    6  O1  UNL     1      -2.411   0.415  -0.121  1.00  0.00    -0.332 OA
HETATM    7  C6  UNL     1      -0.099   0.489   0.255  1.00  0.00     0.023 A 
HETATM    8  C7  UNL     1       1.090  -0.121   0.476  1.00  0.00     0.096 A 
HETATM    9  C8  UNL     1       1.147  -1.471   0.525  1.00  0.00     0.080 A 
HETATM   10  C9  UNL     1       0.030  -2.223   0.382  1.00  0.00     0.109 A 
HETATM   11  C12 UNL     1       2.357  -2.068   0.744  1.00  0.00     0.179 C 
HETATM   12  C13 UNL     1       3.597  -1.204   0.937  1.00  0.00     0.090 C 
HETATM   13  C14 UNL     1       3.403   0.090   0.163  1.00  0.00     0.129 C 
HETATM   14  O4  UNL     1       2.211   0.666   0.581  1.00  0.00    -0.333 OA
HETATM   15  C15 UNL     1       4.531   1.106   0.330  1.00  0.00     0.033 C 
HETATM   16  C16 UNL     1       3.882  -1.024   2.437  1.00  0.00     0.011 C 
HETATM   17  O5  UNL     1       2.542  -3.263   0.812  1.00  0.00    -0.291 OA
HETATM   18  C23 UNL     1      -4.777   0.357  -0.096  1.00  0.00     0.035 C 
HETATM   19  C24 UNL     1      -3.475  -0.143  -2.185  1.00  0.00     0.035 C 
ENDROOT
BRANCH   7  20
HETATM   20  C17 UNL     1      -0.107   2.030   0.178  1.00  0.00     0.037 C 
BRANCH  20  21
HETATM   21  C18 UNL     1      -1.343   2.793   0.708  1.00  0.00     0.102 C 
BRANCH  21  22
HETATM   22  C19 UNL     1      -1.111   4.283   0.901  1.00  0.00     0.185 C 
HETATM   23  O6  UNL     1      -1.623   5.176   0.270  1.00  0.00    -0.647 OA
HETATM   24  O7  UNL     1      -0.261   4.539   1.913  1.00  0.00    -0.647 OA
ENDBRANCH  21  22
ENDBRANCH  20  21
BRANCH  20  25
HETATM   25  C20 UNL     1       0.330   2.521  -1.221  1.00  0.00     0.005 C 
BRANCH  25  26
HETATM   26  C21 UNL     1      -0.558   2.037  -2.376  1.00  0.00     0.000 C 
HETATM   27  C22 UNL     1      -0.063   2.549  -3.735  1.00  0.00     0.000 C 
ENDBRANCH  25  26
ENDBRANCH  20  25
ENDBRANCH   7  20
BRANCH  10  28
HETATM   28  O2  UNL     1       0.061  -3.598   0.436  1.00  0.00    -0.276 OA
BRANCH  28  29
HETATM   29  C10 UNL     1       0.107  -4.137   1.688  1.00  0.00     0.277 C 
HETATM   30  C11 UNL     1       0.370  -5.627   1.613  1.00  0.00     0.107 C 
HETATM   31  O3  UNL     1      -0.067  -3.510   2.709  1.00  0.00    -0.264 OA
ENDBRANCH  28  29
ENDBRANCH  10  28
TORSDOF 7
