REMARK  5 active torsions:
REMARK  status: ('A' for Active; 'I' for Inactive)
REMARK    1  A    between atoms: C6_7  and  C15_19 
REMARK    2  A    between atoms: C15_19  and  C16_20 
REMARK    3  A    between atoms: C15_19  and  C18_24 
REMARK    4  A    between atoms: C16_20  and  C17_21 
REMARK    5  A    between atoms: C18_24  and  C19_25 
ROOT
HETATM    1  C1  UNL     1      -3.485  -0.697  -0.487  1.00  0.00     0.117 C 
HETATM    2  C2  UNL     1      -3.481  -2.112   0.011  1.00  0.00     0.001 C 
HETATM    3  C3  UNL     1      -2.345  -2.686   0.419  1.00  0.00     0.002 C 
HETATM    4  C4  UNL     1      -1.195  -1.989   0.509  1.00  0.00     0.047 A 
HETATM    5  C5  UNL     1      -1.231  -0.654   0.320  1.00  0.00     0.094 A 
HETATM    6  O1  UNL     1      -2.387   0.013   0.007  1.00  0.00    -0.332 OA
HETATM    7  C6  UNL     1      -0.074   0.040   0.416  1.00  0.00     0.023 A 
HETATM    8  C7  UNL     1       1.086  -0.591   0.718  1.00  0.00     0.097 A 
HETATM    9  C8  UNL     1       1.092  -1.931   0.907  1.00  0.00     0.082 A 
HETATM   10  C9  UNL     1      -0.054  -2.642   0.818  1.00  0.00     0.137 A 
HETATM   11  O2  UNL     1      -0.107  -4.000   0.978  1.00  0.00    -0.190 OA
HETATM   12  C10 UNL     1       2.274  -2.539   1.222  1.00  0.00     0.179 C 
HETATM   13  C11 UNL     1       3.546  -1.707   1.331  1.00  0.00     0.090 C 
HETATM   14  C12 UNL     1       3.407  -0.495   0.423  1.00  0.00     0.129 C 
HETATM   15  O3  UNL     1       2.235   0.161   0.769  1.00  0.00    -0.333 OA
HETATM   16  C13 UNL     1       4.570   0.492   0.493  1.00  0.00     0.033 C 
HETATM   17  C14 UNL     1       3.839  -1.378   2.804  1.00  0.00     0.011 C 
HETATM   18  O4  UNL     1       2.412  -3.719   1.452  1.00  0.00    -0.291 OA
HETATM   19  C21 UNL     1      -4.754   0.028  -0.026  1.00  0.00     0.035 C 
HETATM   20  C22 UNL     1      -3.416  -0.718  -2.018  1.00  0.00     0.035 C 
ENDROOT
BRANCH   7  21
HETATM   21  C15 UNL     1      -0.021   1.565   0.190  1.00  0.00     0.037 C 
BRANCH  21  22
HETATM   22  C16 UNL     1      -1.242   2.417   0.603  1.00  0.00     0.102 C 
BRANCH  22  23
HETATM   23  C17 UNL     1      -0.948   3.905   0.688  1.00  0.00     0.185 C 
HETATM   24  O5  UNL     1      -1.341   4.760  -0.069  1.00  0.00    -0.647 OA
HETATM   25  O6  UNL     1      -0.191   4.212   1.757  1.00  0.00    -0.647 OA
ENDBRANCH  22  23
ENDBRANCH  21  22
BRANCH  21  26
HETATM   26  C18 UNL     1       0.472   1.902  -1.236  1.00  0.00     0.005 C 
BRANCH  26  27
HETATM   27  C19 UNL     1      -0.404   1.345  -2.367  1.00  0.00     0.000 C 
HETATM   28  C20 UNL     1       0.163   1.692  -3.751  1.00  0.00     0.000 C 
ENDBRANCH  26  27
ENDBRANCH  21  26
ENDBRANCH   7  21
TORSDOF 5
