REMARK  8 active torsions:
REMARK  status: ('A' for Active; 'I' for Inactive)
REMARK    1  A    between atoms: C1_1  and  O15_42 
REMARK    2  A    between atoms: C2_2  and  C22_31 
REMARK    3  A    between atoms: C6_6  and  C7_7 
REMARK    4  A    between atoms: C8_9  and  C12_16 
REMARK    5  A    between atoms: C13_19  and  C16_23 
REMARK    6  A    between atoms: C23_33  and  C27_40 
REMARK    7  A    between atoms: O15_42  and  C28_43 
REMARK    8  A    between atoms: C30_46  and  C32_49 
ROOT
HETATM    1  C1  UNL     1       0.643   0.068   0.346  1.00  0.00     0.097 A 
HETATM    2  C2  UNL     1       1.776   0.642   0.835  1.00  0.00     0.055 A 
HETATM    3  C3  UNL     1       2.404   1.648   0.185  1.00  0.00     0.136 A 
HETATM    4  C4  UNL     1       1.889   2.122  -0.963  1.00  0.00     0.087 A 
HETATM    5  C5  UNL     1       0.748   1.606  -1.448  1.00  0.00     0.105 A 
HETATM    6  C6  UNL     1       0.115   0.593  -0.797  1.00  0.00     0.052 A 
HETATM    7  O6  UNL     1       0.231   2.061  -2.629  1.00  0.00    -0.307 OA
HETATM    8  C13 UNL     1       0.868   3.037  -3.334  1.00  0.00     0.103 A 
HETATM    9  C14 UNL     1       1.997   3.552  -2.820  1.00  0.00     0.067 A 
HETATM   10  C15 UNL     1       2.523   3.120  -1.645  1.00  0.00     0.202 A 
HETATM   11  O7  UNL     1       3.546   3.660  -1.284  1.00  0.00    -0.286 OA
HETATM   12  O9  UNL     1       3.591   2.125   0.664  1.00  0.00    -0.190 OA
ENDROOT
BRANCH   2  13
HETATM   13  C22 UNL     1       2.486   0.208   2.136  1.00  0.00     0.174 C 
HETATM   14  O10 UNL     1       3.632  -0.555   1.831  1.00  0.00    -0.347 OA
HETATM   15  C23 UNL     1       4.543  -0.676   2.897  1.00  0.00     0.181 C 
HETATM   16  C24 UNL     1       3.869  -1.286   4.125  1.00  0.00     0.214 C 
HETATM   17  C25 UNL     1       2.619  -0.513   4.495  1.00  0.00     0.218 C 
HETATM   18  O13 UNL     1       4.714  -1.266   5.250  1.00  0.00    -0.218 OA
HETATM   19  C26 UNL     1       1.736  -0.468   3.267  1.00  0.00     0.216 C 
HETATM   20  O12 UNL     1       1.942  -1.172   5.535  1.00  0.00    -0.218 OA
HETATM   21  O11 UNL     1       0.569   0.253   3.562  1.00  0.00    -0.218 OA
BRANCH  15  22
HETATM   22  C27 UNL     1       5.713  -1.510   2.388  1.00  0.00     0.214 C 
HETATM   23  O14 UNL     1       6.839  -1.360   3.227  1.00  0.00    -0.218 OA
ENDBRANCH  15  22
ENDBRANCH   2  13
BRANCH   1  24
HETATM   24  O15 UNL     1       0.183  -1.013   1.071  1.00  0.00    -0.304 OA
BRANCH  24  25
HETATM   25  C28 UNL     1      -1.153  -1.344   1.330  1.00  0.00     0.274 C 
HETATM   26  O16 UNL     1      -1.801  -0.222   1.881  1.00  0.00    -0.326 OA
HETATM   27  C29 UNL     1      -2.657  -0.656   2.912  1.00  0.00     0.181 C 
HETATM   28  C30 UNL     1      -2.616  -2.175   2.950  1.00  0.00     0.217 C 
HETATM   29  C31 UNL     1      -1.236  -2.427   2.384  1.00  0.00     0.241 C 
HETATM   30  O19 UNL     1      -3.536  -2.707   2.032  1.00  0.00    -0.218 OA
HETATM   31  O17 UNL     1      -1.165  -3.715   1.829  1.00  0.00    -0.215 OA
BRANCH  28  32
HETATM   32  C32 UNL     1      -2.856  -2.787   4.316  1.00  0.00     0.218 C 
HETATM   33  O18 UNL     1      -4.094  -2.342   4.833  1.00  0.00    -0.218 OA
ENDBRANCH  28  32
ENDBRANCH  24  25
ENDBRANCH   1  24
BRANCH   6  34
HETATM   34  C7  UNL     1      -1.133   0.067  -1.541  1.00  0.00     0.174 C 
HETATM   35  O1  UNL     1      -2.325   0.103  -0.798  1.00  0.00    -0.347 OA
HETATM   36  C8  UNL     1      -3.469  -0.291  -1.511  1.00  0.00     0.181 C 
HETATM   37  C9  UNL     1      -3.271  -1.684  -2.101  1.00  0.00     0.214 C 
HETATM   38  C10 UNL     1      -2.048  -1.714  -2.992  1.00  0.00     0.218 C 
HETATM   39  O4  UNL     1      -4.376  -2.055  -2.889  1.00  0.00    -0.218 OA
HETATM   40  C11 UNL     1      -0.840  -1.272  -2.194  1.00  0.00     0.216 C 
HETATM   41  O3  UNL     1      -1.848  -3.017  -3.477  1.00  0.00    -0.218 OA
HETATM   42  O2  UNL     1       0.247  -1.113  -3.078  1.00  0.00    -0.218 OA
BRANCH  36  43
HETATM   43  C12 UNL     1      -4.657  -0.267  -0.558  1.00  0.00     0.214 C 
HETATM   44  O5  UNL     1      -4.846   1.036  -0.044  1.00  0.00    -0.218 OA
ENDBRANCH  36  43
ENDBRANCH   6  34
BRANCH   8  45
HETATM   45  C16 UNL     1       0.341   3.447  -4.516  1.00  0.00     0.023 A 
HETATM   46  C17 UNL     1      -0.800   2.876  -4.960  1.00  0.00     0.004 A 
HETATM   47  C18 UNL     1      -1.381   3.229  -6.117  1.00  0.00     0.028 A 
HETATM   48  C19 UNL     1      -0.852   4.176  -6.904  1.00  0.00     0.131 A 
HETATM   49  C20 UNL     1       0.283   4.752  -6.478  1.00  0.00     0.028 A 
HETATM   50  O8  UNL     1      -1.431   4.541  -8.079  1.00  0.00    -0.190 OA
HETATM   51  C21 UNL     1       0.862   4.398  -5.319  1.00  0.00     0.004 A 
ENDBRANCH   8  45
TORSDOF 8
