REMARK  7 active torsions:
REMARK  status: ('A' for Active; 'I' for Inactive)
REMARK    1  A    between atoms: C1_1  and  C16_25 
REMARK    2  A    between atoms: C2_3  and  O5_10 
REMARK    3  A    between atoms: O5_10  and  C6_11 
REMARK    4  A    between atoms: C9_14  and  C11_17 
REMARK    5  A    between atoms: C16_25  and  O10_26 
REMARK    6  A    between atoms: O10_26  and  C17_27 
REMARK    7  A    between atoms: C17_27  and  C18_28 
ROOT
HETATM    1  C1  UNL     1       1.849  -0.817   1.514  1.00  0.00     0.181 C 
HETATM    2  O1  UNL     1       0.649  -0.620   0.812  1.00  0.00    -0.326 OA
HETATM    3  C2  UNL     1      -0.417  -0.165   1.622  1.00  0.00     0.272 C 
HETATM    4  C3  UNL     1      -0.705  -1.137   2.744  1.00  0.00     0.241 C 
HETATM    5  C4  UNL     1       0.553  -1.373   3.548  1.00  0.00     0.220 C 
HETATM    6  C5  UNL     1       1.641  -1.856   2.611  1.00  0.00     0.215 C 
HETATM    7  O2  UNL     1       2.812  -2.040   3.369  1.00  0.00    -0.218 OA
HETATM    8  O3  UNL     1       0.306  -2.344   4.532  1.00  0.00    -0.218 OA
HETATM    9  O4  UNL     1      -1.685  -0.610   3.604  1.00  0.00    -0.215 OA
ENDROOT
BRANCH   3  10
HETATM   10  O5  UNL     1      -1.502  -0.150   0.712  1.00  0.00    -0.304 OA
BRANCH  10  11
HETATM   11  C6  UNL     1      -2.249   1.043   0.716  1.00  0.00     0.246 C 
HETATM   12  C7  UNL     1      -3.561   0.856  -0.015  1.00  0.00     0.082 C 
HETATM   13  C8  UNL     1      -4.345   2.189  -0.025  1.00  0.00     0.042 C 
HETATM   14  C14 UNL     1      -3.478   0.464  -1.476  1.00  0.00    -0.009 C 
HETATM   15  C9  UNL     1      -3.405   3.376  -0.150  1.00  0.00     0.067 C 
HETATM   16  C12 UNL     1      -5.250   2.012  -1.262  1.00  0.00     0.042 C 
HETATM   17  C10 UNL     1      -2.069   3.201  -0.157  1.00  0.00     0.121 C 
HETATM   18  O6  UNL     1      -1.455   2.003   0.068  1.00  0.00    -0.303 OA
HETATM   19  C13 UNL     1      -4.330   1.386  -2.302  1.00  0.00     0.171 C 
HETATM   20  O9  UNL     1      -5.075   0.682  -3.275  1.00  0.00    -0.219 OA
HETATM   21  C15 UNL     1      -2.792  -0.567  -1.987  1.00  0.00    -0.006 C 
BRANCH  15  22
HETATM   22  C11 UNL     1      -3.909   4.638  -0.260  1.00  0.00     0.209 C 
HETATM   23  O7  UNL     1      -5.232   4.909  -0.216  1.00  0.00    -0.644 OA
HETATM   24  O8  UNL     1      -3.190   5.606  -0.369  1.00  0.00    -0.644 OA
ENDBRANCH  15  22
ENDBRANCH  10  11
ENDBRANCH   3  10
BRANCH   1  25
HETATM   25  C16 UNL     1       2.910  -1.255   0.503  1.00  0.00     0.184 C 
BRANCH  25  26
HETATM   26  O10 UNL     1       3.266  -0.150  -0.278  1.00  0.00    -0.296 OA
BRANCH  26  27
HETATM   27  C17 UNL     1       4.218  -0.133  -1.270  1.00  0.00     0.296 C 
HETATM   28  O11 UNL     1       4.392   0.973  -1.750  1.00  0.00    -0.259 OA
BRANCH  27  29
HETATM   29  C18 UNL     1       4.992  -1.131  -1.809  1.00  0.00     0.063 A 
HETATM   30  C19 UNL     1       5.875  -0.821  -2.786  1.00  0.00     0.005 A 
HETATM   31  C20 UNL     1       6.663  -1.739  -3.369  1.00  0.00     0.000 A 
HETATM   32  C21 UNL     1       6.592  -3.021  -2.991  1.00  0.00     0.000 A 
HETATM   33  C22 UNL     1       5.728  -3.359  -2.025  1.00  0.00     0.000 A 
HETATM   34  C23 UNL     1       4.950  -2.429  -1.447  1.00  0.00     0.005 A 
ENDBRANCH  27  29
ENDBRANCH  26  27
ENDBRANCH  25  26
ENDBRANCH   1  25
TORSDOF 7
