REMARK  7 active torsions:
REMARK  status: ('A' for Active; 'I' for Inactive)
REMARK    1  A    between atoms: C1_1  and  C16_25 
REMARK    2  A    between atoms: C2_3  and  O5_10 
REMARK    3  A    between atoms: O5_10  and  C6_11 
REMARK    4  A    between atoms: C9_14  and  C11_17 
REMARK    5  A    between atoms: C16_25  and  O10_26 
REMARK    6  A    between atoms: O10_26  and  C17_27 
REMARK    7  A    between atoms: C17_27  and  C18_28 
ROOT
HETATM    1  C1  UNL     1       1.911  -0.832   1.634  1.00  0.00     0.181 C 
HETATM    2  O1  UNL     1       0.757  -0.592   0.871  1.00  0.00    -0.326 OA
HETATM    3  C2  UNL     1      -0.348  -0.156   1.638  1.00  0.00     0.272 C 
HETATM    4  C3  UNL     1      -0.715  -1.176   2.692  1.00  0.00     0.241 C 
HETATM    5  C4  UNL     1       0.488  -1.469   3.559  1.00  0.00     0.220 C 
HETATM    6  C5  UNL     1       1.626  -1.918   2.667  1.00  0.00     0.215 C 
HETATM    7  O2  UNL     1       2.746  -2.151   3.486  1.00  0.00    -0.218 OA
HETATM    8  O3  UNL     1       0.169  -2.486   4.473  1.00  0.00    -0.218 OA
HETATM    9  O4  UNL     1      -1.736  -0.676   3.518  1.00  0.00    -0.215 OA
ENDROOT
BRANCH   3  10
HETATM   10  O5  UNL     1      -1.377  -0.074   0.670  1.00  0.00    -0.304 OA
BRANCH  10  11
HETATM   11  C6  UNL     1      -2.135   1.113   0.733  1.00  0.00     0.242 C 
HETATM   12  C7  UNL     1      -3.395   0.940  -0.087  1.00  0.00     0.064 C 
HETATM   13  C8  UNL     1      -4.202   2.251  -0.138  1.00  0.00     0.038 C 
HETATM   14  C14 UNL     1      -3.160   0.496  -1.553  1.00  0.00     0.036 C 
HETATM   15  C9  UNL     1      -3.272   3.445  -0.239  1.00  0.00     0.066 C 
HETATM   16  C12 UNL     1      -5.056   1.999  -1.395  1.00  0.00     0.038 C 
HETATM   17  C10 UNL     1      -1.938   3.294  -0.120  1.00  0.00     0.121 C 
HETATM   18  O6  UNL     1      -1.316   2.121   0.197  1.00  0.00    -0.304 OA
HETATM   19  C13 UNL     1      -4.064   1.408  -2.388  1.00  0.00     0.153 C 
HETATM   20  O9  UNL     1      -4.730   0.727  -3.421  1.00  0.00    -0.223 OA
HETATM   21  C15 UNL     1      -3.423  -1.006  -1.742  1.00  0.00     0.003 C 
BRANCH  15  22
HETATM   22  C11 UNL     1      -3.780   4.693  -0.441  1.00  0.00     0.209 C 
HETATM   23  O7  UNL     1      -5.105   4.947  -0.516  1.00  0.00    -0.644 OA
HETATM   24  O8  UNL     1      -3.067   5.667  -0.530  1.00  0.00    -0.644 OA
ENDBRANCH  15  22
ENDBRANCH  10  11
ENDBRANCH   3  10
BRANCH   1  25
HETATM   25  C16 UNL     1       3.030  -1.238   0.674  1.00  0.00     0.184 C 
BRANCH  25  26
HETATM   26  O10 UNL     1       3.419  -0.114  -0.061  1.00  0.00    -0.296 OA
BRANCH  26  27
HETATM   27  C17 UNL     1       4.434  -0.063  -0.987  1.00  0.00     0.296 C 
HETATM   28  O11 UNL     1       4.618   1.054  -1.437  1.00  0.00    -0.259 OA
BRANCH  27  29
HETATM   29  C18 UNL     1       5.262  -1.038  -1.488  1.00  0.00     0.063 A 
HETATM   30  C19 UNL     1       6.203  -0.693  -2.397  1.00  0.00     0.005 A 
HETATM   31  C20 UNL     1       7.048  -1.586  -2.937  1.00  0.00     0.000 A 
HETATM   32  C21 UNL     1       6.980  -2.876  -2.584  1.00  0.00     0.000 A 
HETATM   33  C22 UNL     1       6.058  -3.248  -1.686  1.00  0.00     0.000 A 
HETATM   34  C23 UNL     1       5.221  -2.342  -1.151  1.00  0.00     0.005 A 
ENDBRANCH  27  29
ENDBRANCH  26  27
ENDBRANCH  25  26
ENDBRANCH   1  25
TORSDOF 7
