REMARK  2 active torsions:
REMARK  status: ('A' for Active; 'I' for Inactive)
REMARK    1  A    between atoms: C2_2  and  C16_19 
REMARK    2  A    between atoms: C7_8  and  C10_12 
ROOT
HETATM    1  C1  UNL     1      -1.872   0.583  -0.578  1.00  0.00     0.136 A 
HETATM    2  C2  UNL     1      -1.877  -0.765  -0.619  1.00  0.00     0.065 A 
HETATM    3  C3  UNL     1      -0.696  -1.428  -0.733  1.00  0.00     0.139 A 
HETATM    4  C4  UNL     1       0.476  -0.748  -0.762  1.00  0.00     0.083 A 
HETATM    5  C5  UNL     1       0.489   0.601  -0.697  1.00  0.00     0.101 A 
HETATM    6  C6  UNL     1      -0.696   1.222  -0.605  1.00  0.00     0.052 A 
HETATM    7  O1  UNL     1       1.619   1.377  -0.668  1.00  0.00    -0.328 OA
HETATM    8  C7  UNL     1       2.752   0.744  -0.142  1.00  0.00     0.151 C 
HETATM    9  C8  UNL     1       2.951  -0.555  -0.905  1.00  0.00     0.104 C 
HETATM   10  C9  UNL     1       1.678  -1.388  -0.867  1.00  0.00     0.180 C 
HETATM   11  O2  UNL     1       1.834  -2.585  -0.935  1.00  0.00    -0.291 OA
HETATM   12  O3  UNL     1      -0.740  -2.788  -0.857  1.00  0.00    -0.190 OA
HETATM   13  O5  UNL     1      -2.995   1.345  -0.507  1.00  0.00    -0.190 OA
ENDROOT
BRANCH   2  14
HETATM   14  C16 UNL     1      -3.176  -1.582  -0.579  1.00  0.00     0.068 C 
HETATM   15  C17 UNL     1      -4.571  -0.958  -0.386  1.00  0.00     0.048 C 
HETATM   16  C18 UNL     1      -4.914  -0.339   0.980  1.00  0.00     0.033 C 
HETATM   17  C19 UNL     1      -3.844  -0.514   2.060  1.00  0.00     0.131 C 
HETATM   18  N1  UNL     1      -3.681  -1.913   2.432  1.00  0.00    -0.217 NA
HETATM   19  C20 UNL     1      -3.283  -2.905   1.587  1.00  0.00     0.364 C 
HETATM   20  N2  UNL     1      -3.008  -2.780   0.255  1.00  0.00    -0.196 NA
HETATM   21  O4  UNL     1      -3.129  -3.997   2.074  1.00  0.00    -0.243 OA
ENDBRANCH   2  14
BRANCH   8  22
HETATM   22  C10 UNL     1       3.972   1.644  -0.219  1.00  0.00     0.005 A 
HETATM   23  C11 UNL     1       4.788   1.790   0.841  1.00  0.00    -0.002 A 
HETATM   24  C12 UNL     1       5.867   2.586   0.780  1.00  0.00    -0.000 A 
HETATM   25  C13 UNL     1       6.147   3.251  -0.350  1.00  0.00    -0.000 A 
HETATM   26  C14 UNL     1       5.345   3.112  -1.417  1.00  0.00    -0.000 A 
HETATM   27  C15 UNL     1       4.269   2.312  -1.348  1.00  0.00    -0.002 A 
ENDBRANCH   8  22
TORSDOF 2
