REMARK  10 active torsions:
REMARK  status: ('A' for Active; 'I' for Inactive)
REMARK    1  A    between atoms: C4_4  and  C41_50 
REMARK    2  A    between atoms: C5_6  and  O2_7 
REMARK    3  A    between atoms: O2_7  and  C6_8 
REMARK    4  A    between atoms: C10_13  and  O4_14 
REMARK    5  A    between atoms: O4_14  and  C11_15 
REMARK    6  A    between atoms: C29_33  and  C30_34 
REMARK    7  A    between atoms: C30_34  and  C31_35 
REMARK    8  A    between atoms: C41_50  and  O10_51 
REMARK    9  A    between atoms: O10_51  and  C42_52 
REMARK   10  A    between atoms: C46_56  and  C47_58 
ROOT
HETATM    1  C11 UNL     1      -0.168   0.076  -0.031  1.00  0.00     0.118 C 
HETATM    2  C12 UNL     1      -0.456   1.544   0.310  1.00  0.00     0.030 C 
HETATM    3  C13 UNL     1       0.748   2.243   0.943  1.00  0.00     0.003 C 
HETATM    4  C14 UNL     1       2.015   2.066   0.123  1.00  0.00     0.000 A 
HETATM    5  C15 UNL     1       2.308   0.609  -0.248  1.00  0.00     0.002 C 
HETATM    6  C16 UNL     1       1.083  -0.071  -0.944  1.00  0.00     0.025 C 
HETATM    7  C17 UNL     1       1.361  -1.579  -1.154  1.00  0.00     0.002 C 
HETATM    8  C18 UNL     1       0.809   0.546  -2.338  1.00  0.00     0.002 C 
HETATM    9  C19 UNL     1       3.654   0.381  -0.982  1.00  0.00     0.000 C 
HETATM   10  C20 UNL     1       4.825   1.305  -0.584  1.00  0.00     0.000 C 
HETATM   11  C21 UNL     1       4.499   2.208   0.611  1.00  0.00     0.000 C 
HETATM   12  C22 UNL     1       3.185   2.977   0.453  1.00  0.00     0.000 A 
HETATM   13  C23 UNL     1       3.038   4.164   1.397  1.00  0.00     0.000 C 
HETATM   14  C24 UNL     1       4.229   5.147   1.373  1.00  0.00     0.000 C 
HETATM   15  C25 UNL     1       5.525   4.573   0.758  1.00  0.00     0.003 C 
HETATM   16  C26 UNL     1       5.657   3.075   1.195  1.00  0.00     0.003 C 
HETATM   17  C27 UNL     1       7.108   2.751   0.773  1.00  0.00     0.033 C 
HETATM   18  C28 UNL     1       7.860   4.089   0.841  1.00  0.00     0.152 C 
HETATM   19  C29 UNL     1       6.866   5.186   1.261  1.00  0.00     0.033 C 
HETATM   20  O7  UNL     1       8.958   4.040   1.718  1.00  0.00    -0.224 OA
HETATM   21  C38 UNL     1       5.667   2.861   2.743  1.00  0.00     0.000 C 
HETATM   22  C39 UNL     1       5.470   4.754  -0.779  1.00  0.00     0.000 C 
HETATM   23  C40 UNL     1       2.444   3.114  -0.865  1.00  0.00     0.000 A 
ENDROOT
BRANCH   1  24
HETATM   24  O4  UNL     1      -1.315  -0.421  -0.671  1.00  0.00    -0.332 OA
BRANCH  24  25
HETATM   25  C10 UNL     1      -1.895  -1.589  -0.126  1.00  0.00     0.267 C 
HETATM   26  C6  UNL     1      -2.859  -2.190  -1.142  1.00  0.00     0.207 C 
HETATM   27  C7  UNL     1      -4.225  -1.518  -1.201  1.00  0.00     0.217 C 
HETATM   28  C8  UNL     1      -4.730  -1.097   0.166  1.00  0.00     0.214 C 
HETATM   29  O9  UNL     1      -4.128  -0.333  -1.962  1.00  0.00    -0.218 OA
HETATM   30  C9  UNL     1      -3.638  -0.401   0.949  1.00  0.00     0.181 C 
HETATM   31  O8  UNL     1      -5.813  -0.218  -0.025  1.00  0.00    -0.218 OA
HETATM   32  O3  UNL     1      -2.518  -1.237   1.090  1.00  0.00    -0.326 OA
BRANCH  26  33
HETATM   33  O2  UNL     1      -2.872  -3.596  -1.139  1.00  0.00    -0.324 OA
BRANCH  33  34
HETATM   34  C5  UNL     1      -3.520  -4.270  -0.077  1.00  0.00     0.270 C 
HETATM   35  C1  UNL     1      -3.046  -5.714  -0.103  1.00  0.00     0.241 C 
HETATM   36  C2  UNL     1      -3.868  -6.545  -1.072  1.00  0.00     0.220 C 
HETATM   37  O18 UNL     1      -3.172  -6.289   1.178  1.00  0.00    -0.215 OA
HETATM   38  C3  UNL     1      -5.320  -6.516  -0.626  1.00  0.00     0.215 C 
HETATM   39  O17 UNL     1      -3.753  -6.036  -2.379  1.00  0.00    -0.218 OA
HETATM   40  C4  UNL     1      -5.716  -5.207   0.058  1.00  0.00     0.180 C 
HETATM   41  O16 UNL     1      -5.480  -7.570   0.301  1.00  0.00    -0.218 OA
HETATM   42  O1  UNL     1      -4.896  -4.159  -0.369  1.00  0.00    -0.326 OA
BRANCH  40  43
HETATM   43  C41 UNL     1      -7.154  -4.738  -0.198  1.00  0.00     0.177 C 
BRANCH  43  44
HETATM   44  O10 UNL     1      -8.079  -5.771  -0.417  1.00  0.00    -0.326 OA
BRANCH  44  45
HETATM   45  C42 UNL     1      -8.468  -6.492   0.726  1.00  0.00     0.270 C 
HETATM   46  C43 UNL     1      -8.951  -7.863   0.310  1.00  0.00     0.241 C 
HETATM   47  C44 UNL     1     -10.314  -7.835  -0.355  1.00  0.00     0.220 C 
HETATM   48  O15 UNL     1      -8.972  -8.712   1.433  1.00  0.00    -0.215 OA
HETATM   49  C45 UNL     1     -11.288  -6.957   0.407  1.00  0.00     0.215 C 
HETATM   50  O14 UNL     1     -10.187  -7.358  -1.674  1.00  0.00    -0.218 OA
HETATM   51  C46 UNL     1     -10.700  -5.630   0.867  1.00  0.00     0.184 C 
HETATM   52  O13 UNL     1     -11.763  -7.668   1.528  1.00  0.00    -0.218 OA
HETATM   53  O11 UNL     1      -9.427  -5.749   1.443  1.00  0.00    -0.326 OA
BRANCH  51  54
HETATM   54  C47 UNL     1     -10.764  -4.506  -0.161  1.00  0.00     0.214 C 
HETATM   55  O12 UNL     1     -12.112  -4.130  -0.367  1.00  0.00    -0.218 OA
ENDBRANCH  51  54
ENDBRANCH  44  45
ENDBRANCH  43  44
ENDBRANCH  40  43
ENDBRANCH  33  34
ENDBRANCH  26  33
ENDBRANCH  24  25
ENDBRANCH   1  24
BRANCH  19  56
HETATM   56  C30 UNL     1       7.297   6.667   1.021  1.00  0.00     0.031 C 
HETATM   57  C37 UNL     1       6.123   7.664   1.056  1.00  0.00     0.003 C 
BRANCH  56  58
HETATM   58  C31 UNL     1       8.297   6.932  -0.126  1.00  0.00     0.129 C 
HETATM   59  O5  UNL     1       9.512   6.311   0.189  1.00  0.00    -0.301 OA
HETATM   60  C32 UNL     1      10.688   6.746  -0.343  1.00  0.00     0.291 C 
HETATM   61  C33 UNL     1      10.835   7.870  -1.091  1.00  0.00     0.037 C 
HETATM   62  O6  UNL     1      11.677   6.068  -0.147  1.00  0.00    -0.260 OA
HETATM   63  C34 UNL     1       9.765   8.666  -1.220  1.00  0.00    -0.023 C 
HETATM   64  C36 UNL     1      12.165   8.228  -1.709  1.00  0.00     0.036 C 
HETATM   65  C35 UNL     1       8.500   8.410  -0.459  1.00  0.00     0.056 C 
ENDBRANCH  56  58
ENDBRANCH  19  56
TORSDOF 10
