REMARK  14 active torsions:
REMARK  status: ('A' for Active; 'I' for Inactive)
REMARK    1  A    between atoms: O1_1  and  C1_2 
REMARK    2  A    between atoms: O1_1  and  C27_45 
REMARK    3  A    between atoms: C2_4  and  C17_31 
REMARK    4  A    between atoms: C4_6  and  O8_18 
REMARK    5  A    between atoms: C5_7  and  O3_8 
REMARK    6  A    between atoms: O3_8  and  C6_9 
REMARK    7  A    between atoms: O8_18  and  C11_19 
REMARK    8  A    between atoms: C12_21  and  C16_28 
REMARK    9  A    between atoms: C17_31  and  O15_32 
REMARK   10  A    between atoms: O15_32  and  C18_33 
REMARK   11  A    between atoms: C18_33  and  C19_34 
REMARK   12  A    between atoms: C20_35  and  C21_36 
REMARK   13  A    between atoms: C27_45  and  C28_46 
REMARK   14  A    between atoms: C28_46  and  C29_47 
ROOT
HETATM    1  C1  UNL     1       0.215  -0.722  -1.106  1.00  0.00     0.267 C 
HETATM    2  O2  UNL     1      -0.515   0.460  -0.851  1.00  0.00    -0.326 OA
HETATM    3  C2  UNL     1      -1.367   0.400   0.260  1.00  0.00     0.181 C 
HETATM    4  C3  UNL     1      -2.358  -0.753   0.146  1.00  0.00     0.211 C 
HETATM    5  C4  UNL     1      -1.627  -2.078  -0.044  1.00  0.00     0.183 C 
HETATM    6  C5  UNL     1      -0.674  -1.955  -1.237  1.00  0.00     0.204 C 
HETATM    7  O14 UNL     1      -3.267  -0.516  -0.906  1.00  0.00    -0.218 OA
ENDROOT
BRANCH   3   8
HETATM    8  C17 UNL     1      -2.092   1.736   0.391  1.00  0.00     0.184 C 
BRANCH   8   9
HETATM    9  O15 UNL     1      -1.183   2.729   0.791  1.00  0.00    -0.296 OA
BRANCH   9  10
HETATM   10  C18 UNL     1      -1.691   3.984   1.007  1.00  0.00     0.296 C 
HETATM   11  O18 UNL     1      -2.829   4.214   0.663  1.00  0.00    -0.259 OA
BRANCH  10  12
HETATM   12  C19 UNL     1      -0.989   4.887   1.744  1.00  0.00     0.068 C 
HETATM   13  C20 UNL     1      -1.265   6.162   2.081  1.00  0.00     0.005 C 
BRANCH  13  14
HETATM   14  C21 UNL     1      -2.199   7.059   1.696  1.00  0.00     0.002 A 
HETATM   15  C22 UNL     1      -2.370   8.175   2.437  1.00  0.00     0.029 A 
HETATM   16  C23 UNL     1      -3.265   9.132   2.139  1.00  0.00     0.156 A 
HETATM   17  C24 UNL     1      -4.022   9.005   1.036  1.00  0.00     0.156 A 
HETATM   18  O17 UNL     1      -3.425  10.229   2.929  1.00  0.00    -0.188 OA
HETATM   19  C25 UNL     1      -3.836   7.930   0.256  1.00  0.00     0.029 A 
HETATM   20  O16 UNL     1      -4.929   9.962   0.706  1.00  0.00    -0.188 OA
HETATM   21  C26 UNL     1      -2.937   6.987   0.574  1.00  0.00     0.002 A 
ENDBRANCH  13  14
ENDBRANCH  10  12
ENDBRANCH   9  10
ENDBRANCH   8   9
ENDBRANCH   3   8
BRANCH   1  22
HETATM   22  O1  UNL     1       1.167  -0.865  -0.069  1.00  0.00    -0.329 OA
BRANCH  22  23
HETATM   23  C27 UNL     1       2.505  -0.732  -0.489  1.00  0.00     0.150 C 
BRANCH  23  24
HETATM   24  C28 UNL     1       3.408  -0.882   0.736  1.00  0.00     0.059 C 
BRANCH  24  25
HETATM   25  C29 UNL     1       4.904  -0.996   0.534  1.00  0.00    -0.018 A 
HETATM   26  C30 UNL     1       5.691  -1.082   1.621  1.00  0.00    -0.002 A 
HETATM   27  C31 UNL     1       7.018  -1.227   1.503  1.00  0.00     0.029 A 
HETATM   28  C32 UNL     1       7.600  -1.293   0.295  1.00  0.00     0.156 A 
HETATM   29  C33 UNL     1       6.829  -1.202  -0.803  1.00  0.00     0.156 A 
HETATM   30  O20 UNL     1       8.944  -1.454   0.163  1.00  0.00    -0.188 OA
HETATM   31  C34 UNL     1       5.499  -1.052  -0.670  1.00  0.00     0.025 A 
HETATM   32  O19 UNL     1       7.401  -1.272  -2.034  1.00  0.00    -0.188 OA
ENDBRANCH  24  25
ENDBRANCH  23  24
ENDBRANCH  22  23
ENDBRANCH   1  22
BRANCH   5  33
HETATM   33  O8  UNL     1      -0.909  -2.323   1.130  1.00  0.00    -0.326 OA
BRANCH  33  34
HETATM   34  C11 UNL     1      -0.591  -3.669   1.401  1.00  0.00     0.270 C 
HETATM   35  O9  UNL     1      -1.397  -4.065   2.495  1.00  0.00    -0.326 OA
HETATM   36  C12 UNL     1      -1.148  -3.368   3.689  1.00  0.00     0.184 C 
HETATM   37  C13 UNL     1       0.315  -3.481   4.101  1.00  0.00     0.215 C 
HETATM   38  C14 UNL     1       1.238  -3.042   2.978  1.00  0.00     0.220 C 
HETATM   39  O12 UNL     1       0.615  -4.810   4.459  1.00  0.00    -0.218 OA
HETATM   40  C15 UNL     1       0.882  -3.803   1.714  1.00  0.00     0.241 C 
HETATM   41  O11 UNL     1       1.085  -1.653   2.767  1.00  0.00    -0.218 OA
HETATM   42  O10 UNL     1       1.195  -5.167   1.882  1.00  0.00    -0.215 OA
BRANCH  36  43
HETATM   43  C16 UNL     1      -2.080  -3.894   4.771  1.00  0.00     0.214 C 
HETATM   44  O13 UNL     1      -3.415  -3.541   4.466  1.00  0.00    -0.218 OA
ENDBRANCH  36  43
ENDBRANCH  33  34
ENDBRANCH   5  33
BRANCH   6  45
HETATM   45  O3  UNL     1      -1.490  -1.884  -2.373  1.00  0.00    -0.324 OA
BRANCH  45  46
HETATM   46  C6  UNL     1      -0.847  -1.907  -3.629  1.00  0.00     0.270 C 
HETATM   47  O4  UNL     1      -1.361  -3.071  -4.238  1.00  0.00    -0.326 OA
HETATM   48  C7  UNL     1      -0.913  -3.210  -5.562  1.00  0.00     0.181 C 
HETATM   49  C8  UNL     1      -1.401  -2.053  -6.415  1.00  0.00     0.215 C 
HETATM   50  C9  UNL     1      -0.956  -0.719  -5.849  1.00  0.00     0.220 C 
HETATM   51  O7  UNL     1      -0.878  -2.175  -7.718  1.00  0.00    -0.218 OA
HETATM   52  C10 UNL     1      -1.255  -0.646  -4.364  1.00  0.00     0.241 C 
HETATM   53  O6  UNL     1       0.433  -0.595  -6.042  1.00  0.00    -0.218 OA
HETATM   54  O5  UNL     1      -2.635  -0.433  -4.169  1.00  0.00    -0.215 OA
ENDBRANCH  45  46
ENDBRANCH   6  45
TORSDOF 14
