REMARK  12 active torsions:
REMARK  status: ('A' for Active; 'I' for Inactive)
REMARK    1  A    between atoms: C2_2  and  C3_3 
REMARK    2  A    between atoms: C4_4  and  C5_5 
REMARK    3  A    between atoms: C6_6  and  C7_7 
REMARK       I    between atoms: C7_7  and  N1_8 
REMARK    4  A    between atoms: N1_8  and  C8_9 
REMARK    5  A    between atoms: C8_9  and  C9_10 
REMARK    6  A    between atoms: C9_10  and  C10_11 
REMARK    7  A    between atoms: C10_11  and  C11_12 
REMARK    8  A    between atoms: C11_12  and  C12_13 
REMARK    9  A    between atoms: C12_13  and  N2_14 
REMARK       I    between atoms: N2_14  and  C13_15 
REMARK   10  A    between atoms: C13_15  and  C14_16 
REMARK   11  A    between atoms: C15_17  and  C16_18 
REMARK   12  A    between atoms: C17_19  and  C18_20 
ROOT
HETATM    1  C10 UNL     1      -0.030   0.184   0.064  1.00  0.00     0.153 C 
HETATM    2  O3  UNL     1      -0.255   1.376   0.067  1.00  0.00    -0.296 OA
ENDROOT
BRANCH   1   3
HETATM    3  C9  UNL     1      -1.266  -0.739  -0.049  1.00  0.00     0.074 C 
HETATM    4  C23 UNL     1      -1.222  -1.908   0.949  1.00  0.00     0.009 C 
HETATM    5  C24 UNL     1      -1.395  -1.261  -1.494  1.00  0.00     0.009 C 
BRANCH   3   6
HETATM    6  C8  UNL     1      -2.524   0.125   0.263  1.00  0.00     0.136 C 
BRANCH   6   7
HETATM    7  N1  UNL     1      -3.791  -0.611   0.180  1.00  0.00    -0.234 NA
HETATM    8  C7  UNL     1      -4.995   0.039   0.112  1.00  0.00     0.275 C 
HETATM    9  O4  UNL     1      -5.050   1.245   0.078  1.00  0.00    -0.266 OA
BRANCH   8  10
HETATM   10  C6  UNL     1      -6.069  -0.796   0.101  1.00  0.00     0.058 C 
HETATM   11  C5  UNL     1      -7.369  -0.423   0.052  1.00  0.00    -0.017 C 
HETATM   12  C25 UNL     1      -7.748   1.046  -0.011  1.00  0.00     0.031 C 
BRANCH  11  13
HETATM   13  C4  UNL     1      -8.300  -1.403   0.065  1.00  0.00    -0.006 C 
HETATM   14  C3  UNL     1      -9.637  -1.268   0.035  1.00  0.00     0.006 C 
BRANCH  14  15
HETATM   15  C2  UNL     1     -10.567  -2.456   0.087  1.00  0.00     0.174 C 
HETATM   16  C1  UNL     1     -12.036  -2.081  -0.078  1.00  0.00     0.041 C 
HETATM   17  O5  UNL     1     -10.389  -3.104   1.334  1.00  0.00    -0.219 OA
ENDBRANCH  14  15
ENDBRANCH  11  13
ENDBRANCH   8  10
ENDBRANCH   6   7
ENDBRANCH   3   6
ENDBRANCH   1   3
BRANCH   1  18
HETATM   18  C11 UNL     1       1.457  -0.224   0.178  1.00  0.00     0.074 C 
HETATM   19  C21 UNL     1       1.844  -1.334  -0.814  1.00  0.00     0.009 C 
HETATM   20  C22 UNL     1       1.765  -0.655   1.626  1.00  0.00     0.009 C 
BRANCH  18  21
HETATM   21  C12 UNL     1       2.316   1.036  -0.140  1.00  0.00     0.136 C 
BRANCH  21  22
HETATM   22  N2  UNL     1       3.761   0.810  -0.038  1.00  0.00    -0.234 NA
HETATM   23  C13 UNL     1       4.656   1.847  -0.089  1.00  0.00     0.275 C 
HETATM   24  O2  UNL     1       4.275   2.985  -0.220  1.00  0.00    -0.266 OA
BRANCH  23  25
HETATM   25  C14 UNL     1       5.953   1.446   0.001  1.00  0.00     0.058 C 
HETATM   26  C15 UNL     1       7.055   2.231  -0.007  1.00  0.00    -0.017 C 
HETATM   27  C20 UNL     1       6.990   3.747  -0.068  1.00  0.00     0.031 C 
BRANCH  26  28
HETATM   28  C16 UNL     1       8.257   1.613   0.040  1.00  0.00    -0.006 C 
HETATM   29  C17 UNL     1       9.462   2.204  -0.034  1.00  0.00     0.006 C 
BRANCH  29  30
HETATM   30  C18 UNL     1      10.761   1.434  -0.012  1.00  0.00     0.174 C 
HETATM   31  C19 UNL     1      11.052   0.812  -1.375  1.00  0.00     0.041 C 
HETATM   32  O1  UNL     1      11.838   2.286   0.341  1.00  0.00    -0.219 OA
ENDBRANCH  29  30
ENDBRANCH  26  28
ENDBRANCH  23  25
ENDBRANCH  21  22
ENDBRANCH  18  21
ENDBRANCH   1  18
TORSDOF 12
