REMARK  15 active torsions:
REMARK  status: ('A' for Active; 'I' for Inactive)
REMARK    1  A    between atoms: C1_1  and  C2_2 
REMARK    2  A    between atoms: C1_1  and  C15_19 
REMARK    3  A    between atoms: C2_2  and  C3_3 
REMARK    4  A    between atoms: C3_3  and  C4_4 
REMARK    5  A    between atoms: C4_4  and  C5_5 
REMARK    6  A    between atoms: C5_5  and  C6_6 
REMARK    7  A    between atoms: C6_6  and  C7_7 
REMARK    8  A    between atoms: C12_12  and  O1_13 
REMARK    9  A    between atoms: O1_13  and  C13_14 
REMARK   10  A    between atoms: C15_19  and  C16_20 
REMARK   11  A    between atoms: C17_21  and  C18_22 
REMARK   12  A    between atoms: C18_22  and  C19_23 
REMARK   13  A    between atoms: C19_23  and  C20_24 
REMARK   14  A    between atoms: C20_24  and  C21_25 
REMARK   15  A    between atoms: C21_25  and  C22_26 
ROOT
HETATM    1  C5  UNL     1       0.187  -2.100   1.059  1.00  0.00     0.005 C 
ENDROOT
BRANCH   1   2
HETATM    2  C4  UNL     1      -0.451  -0.710   0.890  1.00  0.00     0.000 C 
BRANCH   2   3
HETATM    3  C3  UNL     1       0.597   0.396   0.691  1.00  0.00     0.000 C 
BRANCH   3   4
HETATM    4  C2  UNL     1      -0.058   1.786   0.669  1.00  0.00     0.000 C 
BRANCH   4   5
HETATM    5  C1  UNL     1       0.972   2.907   0.460  1.00  0.00     0.005 C 
BRANCH   5   6
HETATM    6  C15 UNL     1       0.309   4.294   0.418  1.00  0.00     0.026 C 
BRANCH   6   7
HETATM    7  C16 UNL     1       1.277   5.343  -0.071  1.00  0.00    -0.031 C 
HETATM    8  C17 UNL     1       1.043   6.269  -1.015  1.00  0.00    -0.031 C 
BRANCH   8   9
HETATM    9  C18 UNL     1      -0.252   6.510  -1.751  1.00  0.00     0.026 C 
BRANCH   9  10
HETATM   10  C19 UNL     1      -0.251   6.018  -3.208  1.00  0.00     0.005 C 
BRANCH  10  11
HETATM   11  C20 UNL     1      -0.291   4.488  -3.378  1.00  0.00     0.000 C 
BRANCH  11  12
HETATM   12  C21 UNL     1       1.088   3.813  -3.331  1.00  0.00     0.000 C 
BRANCH  12  13
HETATM   13  C22 UNL     1       0.975   2.281  -3.402  1.00  0.00     0.000 C 
HETATM   14  C23 UNL     1       2.346   1.598  -3.311  1.00  0.00     0.000 C 
ENDBRANCH  12  13
ENDBRANCH  11  12
ENDBRANCH  10  11
ENDBRANCH   9  10
ENDBRANCH   8   9
ENDBRANCH   6   7
ENDBRANCH   5   6
ENDBRANCH   4   5
ENDBRANCH   3   4
ENDBRANCH   2   3
ENDBRANCH   1   2
BRANCH   1  15
HETATM   15  C6  UNL     1      -0.880  -3.160   1.377  1.00  0.00     0.029 C 
BRANCH  15  16
HETATM   16  C7  UNL     1      -0.438  -4.598   1.602  1.00  0.00     0.005 A 
HETATM   17  C8  UNL     1       0.869  -4.902   1.712  1.00  0.00     0.025 A 
HETATM   18  C9  UNL     1       1.311  -6.155   1.897  1.00  0.00     0.133 A 
HETATM   19  C10 UNL     1       0.388  -7.123   1.963  1.00  0.00     0.057 A 
HETATM   20  O4  UNL     1       2.637  -6.442   2.005  1.00  0.00    -0.190 OA
HETATM   21  C11 UNL     1      -0.924  -6.862   1.858  1.00  0.00     0.155 A 
HETATM   22  C12 UNL     1      -1.353  -5.593   1.683  1.00  0.00     0.124 A 
HETATM   23  O3  UNL     1      -1.824  -7.881   1.930  1.00  0.00    -0.188 OA
BRANCH  22  24
HETATM   24  O1  UNL     1      -2.708  -5.392   1.577  1.00  0.00    -0.275 OA
BRANCH  24  25
HETATM   25  C13 UNL     1      -3.294  -4.516   2.442  1.00  0.00     0.277 C 
HETATM   26  O2  UNL     1      -3.959  -3.564   2.095  1.00  0.00    -0.264 OA
HETATM   27  C14 UNL     1      -3.069  -4.905   3.892  1.00  0.00     0.107 C 
ENDBRANCH  24  25
ENDBRANCH  22  24
ENDBRANCH  15  16
ENDBRANCH   1  15
TORSDOF 15
