REMARK  19 active torsions:
REMARK  status: ('A' for Active; 'I' for Inactive)
REMARK    1  A    between atoms: C1_1  and  O9_40 
REMARK    2  A    between atoms: C5_5  and  C7_8 
REMARK    3  A    between atoms: C7_8  and  C8_9 
REMARK    4  A    between atoms: C8_9  and  C9_10 
REMARK    5  A    between atoms: C9_10  and  C10_11 
REMARK    6  A    between atoms: C10_11  and  C11_12 
REMARK    7  A    between atoms: C11_12  and  C12_13 
REMARK    8  A    between atoms: C12_13  and  C13_14 
REMARK    9  A    between atoms: C13_14  and  C14_15 
REMARK   10  A    between atoms: C15_16  and  C16_17 
REMARK   11  A    between atoms: C16_17  and  C17_18 
REMARK   12  A    between atoms: C17_18  and  C18_19 
REMARK   13  A    between atoms: C18_19  and  C19_20 
REMARK   14  A    between atoms: C19_20  and  C20_21 
REMARK   15  A    between atoms: C20_21  and  C21_22 
REMARK   16  A    between atoms: C21_22  and  C22_23 
REMARK   17  A    between atoms: C22_23  and  C23_24 
REMARK   18  A    between atoms: C27_28  and  O3_31 
REMARK   19  A    between atoms: O3_31  and  C29_32 
ROOT
HETATM    1  C16 UNL     1       0.809  -1.517   0.738  1.00  0.00     0.026 C 
ENDROOT
BRANCH   1   2
HETATM    2  C15 UNL     1       0.077  -2.317  -0.310  1.00  0.00    -0.031 C 
HETATM    3  C14 UNL     1      -1.164  -2.820  -0.216  1.00  0.00    -0.031 C 
BRANCH   3   4
HETATM    4  C13 UNL     1      -2.106  -2.686   0.955  1.00  0.00     0.026 C 
BRANCH   4   5
HETATM    5  C12 UNL     1      -3.213  -1.662   0.663  1.00  0.00     0.005 C 
BRANCH   5   6
HETATM    6  C11 UNL     1      -2.667  -0.257   0.344  1.00  0.00     0.000 C 
BRANCH   6   7
HETATM    7  C10 UNL     1      -3.779   0.790   0.150  1.00  0.00     0.000 C 
BRANCH   7   8
HETATM    8  C9  UNL     1      -4.601   0.573  -1.133  1.00  0.00     0.000 C 
BRANCH   8   9
HETATM    9  C8  UNL     1      -6.119   0.751  -0.953  1.00  0.00     0.005 C 
BRANCH   9  10
HETATM   10  C7  UNL     1      -6.727  -0.221   0.075  1.00  0.00     0.032 C 
BRANCH  10  11
HETATM   11  C5  UNL     1      -8.219  -0.437  -0.129  1.00  0.00     0.047 A 
HETATM   12  C4  UNL     1      -8.686  -1.605  -0.613  1.00  0.00     0.169 A 
HETATM   13  C3  UNL     1     -10.020  -1.784  -0.791  1.00  0.00     0.223 A 
HETATM   14  O7  UNL     1      -7.877  -2.646  -0.960  1.00  0.00    -0.187 OA
HETATM   15  C2  UNL     1     -10.835  -0.751  -0.470  1.00  0.00     0.072 A 
HETATM   16  O8  UNL     1     -10.480  -2.817  -1.227  1.00  0.00    -0.284 OA
HETATM   17  C1  UNL     1     -10.409   0.426   0.022  1.00  0.00     0.136 A 
HETATM   18  C6  UNL     1      -9.065   0.582   0.192  1.00  0.00     0.216 A 
HETATM   19  O1  UNL     1      -8.595   1.609   0.627  1.00  0.00    -0.285 OA
BRANCH  17  20
HETATM   20  O9  UNL     1     -11.358   1.395   0.262  1.00  0.00    -0.325 OA
HETATM   21  C32 UNL     1     -10.988   2.744   0.426  1.00  0.00     0.181 C 
ENDBRANCH  17  20
ENDBRANCH  10  11
ENDBRANCH   9  10
ENDBRANCH   8   9
ENDBRANCH   7   8
ENDBRANCH   6   7
ENDBRANCH   5   6
ENDBRANCH   4   5
ENDBRANCH   3   4
ENDBRANCH   1   2
BRANCH   1  22
HETATM   22  C17 UNL     1       1.268  -0.151   0.202  1.00  0.00     0.005 C 
BRANCH  22  23
HETATM   23  C18 UNL     1       2.040   0.624   1.282  1.00  0.00     0.000 C 
BRANCH  23  24
HETATM   24  C19 UNL     1       2.682   1.923   0.763  1.00  0.00     0.000 C 
BRANCH  24  25
HETATM   25  C20 UNL     1       3.937   2.329   1.560  1.00  0.00     0.000 C 
BRANCH  25  26
HETATM   26  C21 UNL     1       5.264   1.833   0.944  1.00  0.00     0.005 C 
BRANCH  26  27
HETATM   27  C22 UNL     1       5.313   0.319   0.670  1.00  0.00     0.032 C 
BRANCH  27  28
HETATM   28  C23 UNL     1       6.653  -0.305   0.309  1.00  0.00     0.047 A 
HETATM   29  C24 UNL     1       7.017  -1.489   0.843  1.00  0.00     0.169 A 
HETATM   30  C25 UNL     1       8.205  -2.064   0.517  1.00  0.00     0.219 A 
HETATM   31  O6  UNL     1       6.224  -2.192   1.703  1.00  0.00    -0.187 OA
HETATM   32  C26 UNL     1       9.029  -1.433  -0.358  1.00  0.00     0.045 A 
HETATM   33  O5  UNL     1       8.523  -3.131   0.997  1.00  0.00    -0.285 OA
HETATM   34  C27 UNL     1       8.676  -0.253  -0.903  1.00  0.00     0.141 A 
HETATM   35  C31 UNL     1      10.344  -2.111  -0.688  1.00  0.00     0.037 C 
HETATM   36  C28 UNL     1       7.476   0.307  -0.582  1.00  0.00     0.216 A 
HETATM   37  O2  UNL     1       7.178   1.353  -1.114  1.00  0.00    -0.285 OA
BRANCH  34  38
HETATM   38  O3  UNL     1       9.481   0.418  -1.794  1.00  0.00    -0.273 OA
BRANCH  38  39
HETATM   39  C29 UNL     1      10.054   1.547  -1.289  1.00  0.00     0.277 C 
HETATM   40  C30 UNL     1      10.164   2.623  -2.348  1.00  0.00     0.107 C 
HETATM   41  O4  UNL     1      10.426   1.655  -0.142  1.00  0.00    -0.264 OA
ENDBRANCH  38  39
ENDBRANCH  34  38
ENDBRANCH  27  28
ENDBRANCH  26  27
ENDBRANCH  25  26
ENDBRANCH  24  25
ENDBRANCH  23  24
ENDBRANCH  22  23
ENDBRANCH   1  22
TORSDOF 19
