REMARK  13 active torsions:
REMARK  status: ('A' for Active; 'I' for Inactive)
REMARK    1  A    between atoms: C1_1  and  C7_9 
REMARK    2  A    between atoms: C7_9  and  C8_10 
REMARK    3  A    between atoms: C8_10  and  C9_11 
REMARK    4  A    between atoms: C9_11  and  C10_12 
REMARK    5  A    between atoms: C10_12  and  C11_13 
REMARK    6  A    between atoms: C11_13  and  C12_14 
REMARK    7  A    between atoms: C12_14  and  C13_15 
REMARK    8  A    between atoms: C13_15  and  C14_16 
REMARK    9  A    between atoms: C14_16  and  C15_17 
REMARK   10  A    between atoms: C15_17  and  C16_18 
REMARK   11  A    between atoms: C16_18  and  C17_19 
REMARK   12  A    between atoms: C17_19  and  C18_20 
REMARK   13  A    between atoms: C21_23  and  O4_27 
ROOT
HETATM    1  C13 UNL     1      -0.702   1.164  -0.833  1.00  0.00     0.000 C 
ENDROOT
BRANCH   1   2
HETATM    2  C12 UNL     1      -1.647   0.164  -0.145  1.00  0.00     0.000 C 
BRANCH   2   3
HETATM    3  C11 UNL     1      -1.036  -1.245  -0.099  1.00  0.00     0.000 C 
BRANCH   3   4
HETATM    4  C10 UNL     1      -2.001  -2.298   0.473  1.00  0.00     0.000 C 
BRANCH   4   5
HETATM    5  C9  UNL     1      -1.272  -3.623   0.755  1.00  0.00     0.005 C 
BRANCH   5   6
HETATM    6  C8  UNL     1      -2.225  -4.738   1.226  1.00  0.00     0.026 C 
BRANCH   6   7
HETATM    7  C7  UNL     1      -1.444  -5.997   1.635  1.00  0.00    -0.022 C 
BRANCH   7   8
HETATM    8  C1  UNL     1      -2.132  -7.277   2.106  1.00  0.00     0.046 A 
HETATM    9  C2  UNL     1      -1.298  -8.286   2.452  1.00  0.00     0.133 A 
HETATM   10  C3  UNL     1      -1.796  -9.460   2.874  1.00  0.00     0.028 A 
HETATM   11  O2  UNL     1       0.057  -8.147   2.383  1.00  0.00    -0.190 OA
HETATM   12  C4  UNL     1      -3.115  -9.655   2.961  1.00  0.00     0.004 A 
HETATM   13  C5  UNL     1      -3.934  -8.653   2.621  1.00  0.00     0.028 A 
HETATM   14  C6  UNL     1      -3.469  -7.465   2.192  1.00  0.00     0.133 A 
HETATM   15  O1  UNL     1      -4.391  -6.516   1.878  1.00  0.00    -0.190 OA
ENDBRANCH   7   8
ENDBRANCH   6   7
ENDBRANCH   5   6
ENDBRANCH   4   5
ENDBRANCH   3   4
ENDBRANCH   2   3
ENDBRANCH   1   2
BRANCH   1  16
HETATM   16  C14 UNL     1      -1.099   2.627  -0.571  1.00  0.00     0.001 C 
BRANCH  16  17
HETATM   17  C15 UNL     1      -0.251   3.604  -1.402  1.00  0.00     0.008 C 
BRANCH  17  18
HETATM   18  C16 UNL     1      -0.344   5.049  -0.878  1.00  0.00     0.069 C 
BRANCH  18  19
HETATM   19  C17 UNL     1       0.405   6.039  -1.769  1.00  0.00     0.177 C 
HETATM   20  O6  UNL     1      -0.346   6.604  -2.537  1.00  0.00    -0.291 OA
BRANCH  19  21
HETATM   21  C18 UNL     1       1.752   6.294  -1.751  1.00  0.00     0.086 A 
HETATM   22  C19 UNL     1       2.236   7.216  -2.620  1.00  0.00     0.138 A 
HETATM   23  C20 UNL     1       3.553   7.481  -2.644  1.00  0.00     0.052 A 
HETATM   24  O5  UNL     1       1.467   7.910  -3.509  1.00  0.00    -0.190 OA
HETATM   25  C21 UNL     1       4.454   6.896  -1.843  1.00  0.00     0.098 A 
HETATM   26  C22 UNL     1       3.939   5.989  -0.998  1.00  0.00     0.052 A 
HETATM   27  C23 UNL     1       2.630   5.686  -0.915  1.00  0.00     0.138 A 
HETATM   28  O3  UNL     1       2.311   4.732   0.004  1.00  0.00    -0.190 OA
BRANCH  25  29
HETATM   29  O4  UNL     1       5.783   7.218  -1.975  1.00  0.00    -0.328 OA
HETATM   30  C24 UNL     1       6.741   6.412  -1.330  1.00  0.00     0.181 C 
ENDBRANCH  25  29
ENDBRANCH  19  21
ENDBRANCH  18  19
ENDBRANCH  17  18
ENDBRANCH  16  17
ENDBRANCH   1  16
TORSDOF 13
