REMARK  2 active torsions:
REMARK  status: ('A' for Active; 'I' for Inactive)
REMARK    1  A    between atoms: C2_2  and  O2_17 
REMARK    2  A    between atoms: C9_10  and  C12_14 
ROOT
HETATM    1  C1  UNL     1      -2.405   1.831  -0.114  1.00  0.00     0.024 A 
HETATM    2  C2  UNL     1      -2.987   0.613  -0.031  1.00  0.00     0.096 A 
HETATM    3  C3  UNL     1      -2.165  -0.458   0.028  1.00  0.00     0.043 A 
HETATM    4  C4  UNL     1      -0.839  -0.294   0.007  1.00  0.00     0.083 A 
HETATM    5  C5  UNL     1      -0.295   0.926  -0.075  1.00  0.00     0.019 A 
HETATM    6  C6  UNL     1      -1.072   2.011  -0.138  1.00  0.00     0.004 A 
HETATM    7  C7  UNL     1       1.030   0.742  -0.072  1.00  0.00     0.022 A 
HETATM    8  C8  UNL     1       1.241  -0.580   0.014  1.00  0.00     0.102 A 
HETATM    9  N1  UNL     1       0.103  -1.142   0.056  1.00  0.00    -0.244 NA
HETATM   10  C9  UNL     1       2.486  -1.085   0.042  1.00  0.00     0.134 A 
HETATM   11  N2  UNL     1       3.464  -0.275  -0.013  1.00  0.00    -0.240 NA
HETATM   12  C10 UNL     1       3.276   0.977  -0.096  1.00  0.00     0.099 A 
HETATM   13  C11 UNL     1       2.073   1.573  -0.132  1.00  0.00     0.022 A 
ENDROOT
BRANCH  10  14
HETATM   14  C12 UNL     1       2.674  -2.434   0.131  1.00  0.00     0.192 C 
HETATM   15  C13 UNL     1       4.077  -3.027   0.160  1.00  0.00     0.079 C 
HETATM   16  O1  UNL     1       1.747  -3.212   0.187  1.00  0.00    -0.290 OA
ENDBRANCH  10  14
BRANCH   2  17
HETATM   17  O2  UNL     1      -4.343   0.387  -0.006  1.00  0.00    -0.328 OA
HETATM   18  C14 UNL     1      -5.217   1.488  -0.093  1.00  0.00     0.181 C 
ENDBRANCH   2  17
TORSDOF 2
