REMARK  1 active torsions:
REMARK  status: ('A' for Active; 'I' for Inactive)
REMARK    1  A    between atoms: C9_10  and  C12_14 
ROOT
HETATM    1  C1  UNL     1      -3.043   1.997  -0.128  1.00  0.00     0.028 A 
HETATM    2  C2  UNL     1      -3.595   0.769  -0.052  1.00  0.00     0.133 A 
HETATM    3  C3  UNL     1      -2.784  -0.305   0.011  1.00  0.00     0.046 A 
HETATM    4  C4  UNL     1      -1.459  -0.121  -0.006  1.00  0.00     0.084 A 
HETATM    5  C5  UNL     1      -0.931   1.108  -0.084  1.00  0.00     0.019 A 
HETATM    6  C6  UNL     1      -1.713   2.190  -0.146  1.00  0.00     0.004 A 
HETATM    7  C7  UNL     1       0.397   0.939  -0.082  1.00  0.00     0.022 A 
HETATM    8  C8  UNL     1       0.626  -0.380   0.000  1.00  0.00     0.102 A 
HETATM    9  N1  UNL     1      -0.505  -0.957   0.042  1.00  0.00    -0.244 NA
HETATM   10  C9  UNL     1       1.879  -0.868   0.025  1.00  0.00     0.134 A 
HETATM   11  N2  UNL     1       2.845  -0.044  -0.033  1.00  0.00    -0.240 NA
HETATM   12  C10 UNL     1       2.640   1.205  -0.113  1.00  0.00     0.099 A 
HETATM   13  C11 UNL     1       1.429   1.784  -0.142  1.00  0.00     0.022 A 
HETATM   14  O2  UNL     1      -4.948   0.625  -0.039  1.00  0.00    -0.190 OA
ENDROOT
BRANCH  10  15
HETATM   15  C12 UNL     1       2.089  -2.213   0.112  1.00  0.00     0.192 C 
HETATM   16  C13 UNL     1       3.500  -2.786   0.148  1.00  0.00     0.079 C 
HETATM   17  O1  UNL     1       1.173  -3.006   0.166  1.00  0.00    -0.290 OA
ENDBRANCH  10  15
TORSDOF 1
