REMARK  1 active torsions:
REMARK  status: ('A' for Active; 'I' for Inactive)
REMARK    1  A    between atoms: C1_2  and  C2_3 
ROOT
HETATM    1  C2  UNL     1      -1.683  -0.675  -0.120  1.00  0.00     0.074 A 
HETATM    2  C3  UNL     1      -1.584  -2.019  -0.038  1.00  0.00     0.103 A 
HETATM    3  N2  UNL     1      -0.503  -2.679  -0.004  1.00  0.00    -0.243 NA
HETATM    4  C4  UNL     1       0.586  -2.038  -0.049  1.00  0.00     0.094 A 
HETATM    5  C5  UNL     1       0.629  -0.702  -0.122  1.00  0.00    -0.007 A 
HETATM    6  C6  UNL     1      -0.515  -0.002  -0.155  1.00  0.00    -0.018 A 
HETATM    7  C7  UNL     1      -0.214   1.477  -0.202  1.00  0.00     0.027 C 
HETATM    8  C8  UNL     1       1.268   1.528   0.226  1.00  0.00     0.009 C 
HETATM    9  C9  UNL     1       1.861   0.163  -0.176  1.00  0.00     0.024 C 
HETATM   10  C10 UNL     1       3.011  -0.278   0.735  1.00  0.00     0.005 C 
ENDROOT
BRANCH   1  11
HETATM   11  C1  UNL     1      -2.918  -0.106  -0.161  1.00  0.00     0.298 C 
HETATM   12  N1  UNL     1      -3.026   1.208  -0.476  1.00  0.00    -0.102 N 
HETATM   13  O1  UNL     1      -3.942  -0.732  -0.029  1.00  0.00    -0.264 OA
ENDBRANCH   1  11
TORSDOF 1
