REMARK  7 active torsions:
REMARK  status: ('A' for Active; 'I' for Inactive)
REMARK    1  A    between atoms: C6_6  and  C7_7 
REMARK    2  A    between atoms: C9_9  and  O3_16 
REMARK    3  A    between atoms: C11_11  and  O1_13 
REMARK    4  A    between atoms: C22_28  and  C28_39 
REMARK    5  A    between atoms: C25_31  and  C26_33 
REMARK    6  A    between atoms: C30_46  and  O19_52 
REMARK    7  A    between atoms: C32_48  and  O17_49 
ROOT
HETATM    1  C1  UNL     1      -1.721   0.714  -1.588  1.00  0.00     0.007 A 
HETATM    2  C2  UNL     1      -1.963  -0.538  -1.156  1.00  0.00     0.000 A 
HETATM    3  C3  UNL     1      -0.976  -1.421  -0.906  1.00  0.00     0.001 C 
HETATM    4  C4  UNL     1       0.335  -1.121  -0.945  1.00  0.00     0.051 C 
HETATM    5  C5  UNL     1       0.728   0.355  -0.971  1.00  0.00     0.122 C 
HETATM    6  C6  UNL     1      -0.285   1.173  -1.792  1.00  0.00     0.060 C 
HETATM    7  C15 UNL     1       0.679   0.911   0.489  1.00  0.00     0.276 C 
HETATM    8  O4  UNL     1       1.892   1.323   0.963  1.00  0.00    -0.299 OA
HETATM    9  C16 UNL     1       2.002   1.970   2.220  1.00  0.00     0.184 C 
HETATM   10  C17 UNL     1       1.857   1.055   3.447  1.00  0.00     0.181 C 
HETATM   11  C18 UNL     1       2.229   1.660   4.790  1.00  0.00     0.215 C 
HETATM   12  C19 UNL     1       1.965   0.645   5.902  1.00  0.00     0.220 C 
HETATM   13  C20 UNL     1       1.681  -0.761   5.383  1.00  0.00     0.241 C 
HETATM   14  C21 UNL     1       2.546  -1.142   4.197  1.00  0.00     0.272 C 
HETATM   15  O5  UNL     1       2.700  -0.051   3.291  1.00  0.00    -0.326 OA
HETATM   16  O6  UNL     1       2.105  -2.364   3.538  1.00  0.00    -0.304 OA
HETATM   17  C22 UNL     1       1.726  -2.158   2.174  1.00  0.00     0.249 C 
HETATM   18  C23 UNL     1       0.886  -3.132   1.318  1.00  0.00     0.211 C 
HETATM   19  C24 UNL     1      -0.293  -3.542   2.172  1.00  0.00     0.214 C 
HETATM   20  C25 UNL     1      -0.454  -2.177   2.913  1.00  0.00     0.184 C 
HETATM   21  O7  UNL     1       0.626  -1.308   2.509  1.00  0.00    -0.328 OA
HETATM   22  O9  UNL     1       0.122  -4.549   3.062  1.00  0.00    -0.218 OA
HETATM   23  O10 UNL     1       1.083  -3.327  -0.093  1.00  0.00    -0.293 OA
HETATM   24  C27 UNL     1       1.287  -2.089  -0.752  1.00  0.00     0.292 C 
HETATM   25  O11 UNL     1       2.383  -1.813  -1.195  1.00  0.00    -0.259 OA
HETATM   26  O13 UNL     1       1.889  -1.677   6.431  1.00  0.00    -0.215 OA
HETATM   27  O14 UNL     1       3.083   0.578   6.755  1.00  0.00    -0.218 OA
HETATM   28  O15 UNL     1       1.498   2.839   5.016  1.00  0.00    -0.218 OA
HETATM   29  O16 UNL     1      -0.354   1.025   1.110  1.00  0.00    -0.264 OA
HETATM   30  C29 UNL     1      -3.240  -0.936  -1.040  1.00  0.00     0.026 A 
HETATM   31  C30 UNL     1      -4.279  -0.125  -1.303  1.00  0.00     0.121 A 
HETATM   32  C31 UNL     1      -4.005   1.125  -1.738  1.00  0.00     0.175 A 
HETATM   33  C32 UNL     1      -2.733   1.559  -1.900  1.00  0.00     0.118 A 
HETATM   34  O18 UNL     1      -5.077   1.915  -2.031  1.00  0.00    -0.186 OA
ENDROOT
BRANCH   6  35
HETATM   35  C7  UNL     1       0.084   1.239  -3.265  1.00  0.00    -0.013 A 
HETATM   36  C8  UNL     1       0.404   2.410  -3.840  1.00  0.00     0.022 A 
HETATM   37  C9  UNL     1       0.749   2.514  -5.136  1.00  0.00     0.121 A 
HETATM   38  C10 UNL     1       0.761   1.379  -5.868  1.00  0.00     0.175 A 
HETATM   39  C11 UNL     1       0.438   0.180  -5.338  1.00  0.00     0.121 A 
HETATM   40  O2  UNL     1       1.109   1.440  -7.185  1.00  0.00    -0.186 OA
HETATM   41  C12 UNL     1       0.111   0.139  -4.033  1.00  0.00     0.022 A 
BRANCH  37  42
HETATM   42  O3  UNL     1       1.083   3.695  -5.761  1.00  0.00    -0.326 OA
HETATM   43  C14 UNL     1       1.019   4.898  -5.030  1.00  0.00     0.181 C 
ENDBRANCH  37  42
BRANCH  39  44
HETATM   44  O1  UNL     1       0.497  -0.922  -6.160  1.00  0.00    -0.326 OA
HETATM   45  C13 UNL     1       0.384  -2.206  -5.593  1.00  0.00     0.181 C 
ENDBRANCH  39  44
ENDBRANCH   6  35
BRANCH  33  46
HETATM   46  O17 UNL     1      -2.370   2.816  -2.339  1.00  0.00    -0.326 OA
HETATM   47  C33 UNL     1      -3.287   3.878  -2.413  1.00  0.00     0.181 C 
ENDBRANCH  33  46
BRANCH  31  48
HETATM   48  O19 UNL     1      -5.599  -0.502  -1.202  1.00  0.00    -0.326 OA
HETATM   49  C34 UNL     1      -5.921  -1.856  -0.987  1.00  0.00     0.181 C 
ENDBRANCH  31  48
BRANCH  17  50
HETATM   50  C28 UNL     1       3.008  -1.789   1.416  1.00  0.00     0.241 C 
HETATM   51  O12 UNL     1       4.209  -1.806   2.171  1.00  0.00    -0.215 OA
ENDBRANCH  17  50
BRANCH  20  52
HETATM   52  C26 UNL     1      -1.775  -1.483   2.630  1.00  0.00     0.214 C 
HETATM   53  O8  UNL     1      -1.736  -0.176   3.168  1.00  0.00    -0.218 OA
ENDBRANCH  20  52
TORSDOF 7
