REMARK  13 active torsions:
REMARK  status: ('A' for Active; 'I' for Inactive)
REMARK    1  A    between atoms: C1_1  and  C8_10 
REMARK    2  A    between atoms: C3_3  and  O2_8 
REMARK    3  A    between atoms: C9_11  and  C10_12 
REMARK    4  A    between atoms: C10_12  and  O4_14 
REMARK    5  A    between atoms: O4_14  and  C11_15 
REMARK    6  A    between atoms: C11_15  and  C12_16 
REMARK    7  A    between atoms: C13_17  and  O14_36 
REMARK    8  A    between atoms: C16_20  and  O6_22 
REMARK    9  A    between atoms: O6_22  and  C17_23 
REMARK   10  A    between atoms: C17_23  and  C22_32 
REMARK   11  A    between atoms: C20_26  and  C21_28 
REMARK   12  A    between atoms: O14_36  and  C23_37 
REMARK   13  A    between atoms: C27_41  and  C28_42 
ROOT
HETATM    1  C12 UNL     1      -0.002   0.287   1.139  1.00  0.00     0.178 C 
HETATM    2  C13 UNL     1       0.735   0.523   2.467  1.00  0.00     0.181 C 
HETATM    3  C14 UNL     1       2.149  -0.066   2.428  1.00  0.00     0.217 C 
HETATM    4  C15 UNL     1       2.170  -1.472   1.857  1.00  0.00     0.241 C 
HETATM    5  C16 UNL     1       1.314  -1.584   0.617  1.00  0.00     0.272 C 
HETATM    6  O5  UNL     1       0.017  -1.087   0.856  1.00  0.00    -0.326 OA
HETATM    7  O12 UNL     1       1.752  -2.372   2.854  1.00  0.00    -0.215 OA
HETATM    8  O13 UNL     1       2.983   0.748   1.638  1.00  0.00    -0.218 OA
ENDROOT
BRANCH   1   9
HETATM    9  C11 UNL     1       0.398   1.113  -0.084  1.00  0.00     0.184 C 
BRANCH   9  10
HETATM   10  O4  UNL     1      -0.331   2.312  -0.145  1.00  0.00    -0.296 OA
BRANCH  10  11
HETATM   11  C10 UNL     1      -0.253   3.105  -1.274  1.00  0.00     0.296 C 
HETATM   12  O3  UNL     1      -0.966   4.085  -1.281  1.00  0.00    -0.259 OA
BRANCH  11  13
HETATM   13  C9  UNL     1       0.602   2.885  -2.313  1.00  0.00     0.068 C 
HETATM   14  C8  UNL     1       0.783   3.495  -3.503  1.00  0.00     0.005 C 
BRANCH  14  15
HETATM   15  C1  UNL     1       0.165   4.445  -4.239  1.00  0.00     0.002 A 
HETATM   16  C2  UNL     1       0.792   4.884  -5.354  1.00  0.00     0.026 A 
HETATM   17  C3  UNL     1       0.283   5.779  -6.222  1.00  0.00     0.119 A 
HETATM   18  C4  UNL     1      -0.903   6.345  -5.923  1.00  0.00     0.153 A 
HETATM   19  C5  UNL     1      -1.563   5.910  -4.839  1.00  0.00     0.029 A 
HETATM   20  O1  UNL     1      -1.455   7.295  -6.726  1.00  0.00    -0.188 OA
HETATM   21  C6  UNL     1      -1.052   4.974  -4.025  1.00  0.00     0.002 A 
BRANCH  17  22
HETATM   22  O2  UNL     1       1.020   6.209  -7.298  1.00  0.00    -0.326 OA
HETATM   23  C7  UNL     1       0.743   5.510  -8.491  1.00  0.00     0.181 C 
ENDBRANCH  17  22
ENDBRANCH  14  15
ENDBRANCH  11  13
ENDBRANCH  10  11
ENDBRANCH   9  10
ENDBRANCH   1   9
BRANCH   2  24
HETATM   24  O14 UNL     1      -0.099  -0.105   3.408  1.00  0.00    -0.326 OA
BRANCH  24  25
HETATM   25  C23 UNL     1       0.250  -0.072   4.769  1.00  0.00     0.270 C 
HETATM   26  C24 UNL     1      -0.632   0.842   5.595  1.00  0.00     0.241 C 
HETATM   27  C25 UNL     1      -2.019   0.290   5.864  1.00  0.00     0.220 C 
HETATM   28  O19 UNL     1      -0.007   1.070   6.839  1.00  0.00    -0.215 OA
HETATM   29  C26 UNL     1      -1.908  -1.166   6.275  1.00  0.00     0.215 C 
HETATM   30  O18 UNL     1      -2.820   0.444   4.718  1.00  0.00    -0.218 OA
HETATM   31  C27 UNL     1      -1.064  -1.996   5.318  1.00  0.00     0.184 C 
HETATM   32  O17 UNL     1      -3.187  -1.732   6.434  1.00  0.00    -0.218 OA
HETATM   33  O16 UNL     1       0.215  -1.427   5.176  1.00  0.00    -0.326 OA
BRANCH  31  34
HETATM   34  C28 UNL     1      -1.753  -2.353   4.001  1.00  0.00     0.214 C 
HETATM   35  O15 UNL     1      -0.925  -3.177   3.206  1.00  0.00    -0.218 OA
ENDBRANCH  31  34
ENDBRANCH  24  25
ENDBRANCH   2  24
BRANCH   5  36
HETATM   36  O6  UNL     1       1.097  -2.941   0.297  1.00  0.00    -0.304 OA
BRANCH  36  37
HETATM   37  C17 UNL     1       1.034  -3.270  -1.071  1.00  0.00     0.252 C 
HETATM   38  C18 UNL     1       0.487  -4.688  -1.165  1.00  0.00     0.238 C 
HETATM   39  C19 UNL     1      -0.685  -4.564  -2.116  1.00  0.00     0.217 C 
HETATM   40  O10 UNL     1       0.021  -5.123   0.093  1.00  0.00    -0.215 OA
HETATM   41  C20 UNL     1      -1.064  -3.101  -1.985  1.00  0.00     0.184 C 
HETATM   42  O9  UNL     1      -0.240  -4.825  -3.426  1.00  0.00    -0.218 OA
HETATM   43  O7  UNL     1       0.128  -2.421  -1.732  1.00  0.00    -0.328 OA
BRANCH  41  44
HETATM   44  C21 UNL     1      -2.082  -2.802  -0.894  1.00  0.00     0.214 C 
HETATM   45  O8  UNL     1      -3.323  -3.390  -1.230  1.00  0.00    -0.218 OA
ENDBRANCH  41  44
BRANCH  37  46
HETATM   46  C22 UNL     1       2.393  -3.147  -1.742  1.00  0.00     0.241 C 
HETATM   47  O11 UNL     1       3.370  -3.848  -1.000  1.00  0.00    -0.215 OA
ENDBRANCH  37  46
ENDBRANCH  36  37
ENDBRANCH   5  36
TORSDOF 13
