REMARK  2 active torsions:
REMARK  status: ('A' for Active; 'I' for Inactive)
REMARK    1  A    between atoms: C2_2  and  O3_20 
REMARK    2  A    between atoms: C6_6  and  O1_7 
ROOT
HETATM    1  C1  UNL     1       1.015   2.017  -0.083  1.00  0.00     0.175 A 
HETATM    2  C2  UNL     1      -0.268   1.536  -0.084  1.00  0.00     0.121 A 
HETATM    3  C3  UNL     1      -0.478   0.180  -0.020  1.00  0.00     0.026 A 
HETATM    4  C4  UNL     1       0.689  -0.493   0.035  1.00  0.00     0.026 A 
HETATM    5  C5  UNL     1       1.941  -0.019   0.034  1.00  0.00     0.084 A 
HETATM    6  C6  UNL     1       2.161   1.300  -0.030  1.00  0.00     0.126 A 
HETATM    7  C8  UNL     1       2.767  -1.095   0.101  1.00  0.00     0.281 A 
HETATM    8  N1  UNL     1       2.063  -2.141   0.143  1.00  0.00    -0.208 NA
HETATM    9  C9  UNL     1       0.840  -1.819   0.105  1.00  0.00     0.085 A 
HETATM   10  C10 UNL     1      -0.216  -2.621   0.128  1.00  0.00     0.019 A 
HETATM   11  C11 UNL     1      -1.419  -2.027   0.076  1.00  0.00     0.002 A 
HETATM   12  C12 UNL     1      -1.556  -0.670   0.003  1.00  0.00     0.002 A 
HETATM   13  C13 UNL     1      -2.855  -0.315  -0.042  1.00  0.00     0.000 A 
HETATM   14  C14 UNL     1      -3.913  -1.139  -0.018  1.00  0.00     0.000 A 
HETATM   15  C15 UNL     1      -3.723  -2.457   0.056  1.00  0.00     0.000 A 
HETATM   16  C16 UNL     1      -2.459  -2.886   0.102  1.00  0.00     0.000 A 
HETATM   17  O2  UNL     1       3.968  -1.175   0.123  1.00  0.00    -0.265 OA
HETATM   18  O4  UNL     1       1.178   3.381  -0.144  1.00  0.00    -0.186 OA
ENDROOT
BRANCH   2  19
HETATM   19  O3  UNL     1      -1.095   2.648  -0.154  1.00  0.00    -0.326 OA
HETATM   20  C17 UNL     1      -2.485   2.758  -0.172  1.00  0.00     0.181 C 
ENDBRANCH   2  19
BRANCH   6  21
HETATM   21  O1  UNL     1       3.340   2.011  -0.038  1.00  0.00    -0.326 OA
HETATM   22  C7  UNL     1       4.604   1.421   0.086  1.00  0.00     0.181 C 
ENDBRANCH   6  21
TORSDOF 2
