REMARK  3 active torsions:
REMARK  status: ('A' for Active; 'I' for Inactive)
REMARK    1  A    between atoms: N1_8  and  O2_18 
REMARK    2  A    between atoms: O2_18  and  C16_19 
REMARK    3  A    between atoms: C17_21  and  C21_28 
ROOT
HETATM    1  C1  UNL     1      -0.467   4.355   0.240  1.00  0.00     0.119 A 
HETATM    2  C2  UNL     1       0.872   4.183   0.223  1.00  0.00     0.119 A 
HETATM    3  C3  UNL     1       1.445   2.961   0.182  1.00  0.00     0.026 A 
HETATM    4  C4  UNL     1       0.534   1.982   0.165  1.00  0.00     0.025 A 
HETATM    5  C5  UNL     1      -0.787   2.130   0.196  1.00  0.00     0.062 A 
HETATM    6  C6  UNL     1      -1.350   3.341   0.237  1.00  0.00     0.031 A 
HETATM    7  C7  UNL     1      -1.309   0.881   0.177  1.00  0.00     0.284 A 
HETATM    8  N1  UNL     1      -0.347   0.041   0.108  1.00  0.00    -0.179 N 
HETATM    9  C8  UNL     1       0.765   0.671   0.116  1.00  0.00     0.091 A 
HETATM   10  C9  UNL     1       2.043   0.281   0.088  1.00  0.00     0.020 A 
HETATM   11  C10 UNL     1       3.012   1.222   0.116  1.00  0.00     0.002 A 
HETATM   12  C11 UNL     1       2.735   2.552   0.158  1.00  0.00     0.004 A 
HETATM   13  C12 UNL     1       3.777   3.405   0.180  1.00  0.00     0.028 A 
HETATM   14  C13 UNL     1       5.060   3.006   0.172  1.00  0.00     0.131 A 
HETATM   15  C14 UNL     1       5.304   1.688   0.136  1.00  0.00     0.027 A 
HETATM   16  C15 UNL     1       4.293   0.810   0.105  1.00  0.00     0.002 A 
HETATM   17  O1  UNL     1       6.075   3.912   0.204  1.00  0.00    -0.190 OA
HETATM   18  O8  UNL     1      -2.490   0.634   0.214  1.00  0.00    -0.265 OA
HETATM   19  O9  UNL     1       1.437   5.276   0.243  1.00  0.00    -0.300 OA
HETATM   20  C22 UNL     1       0.441   6.296   0.255  1.00  0.00     0.304 A 
HETATM   21  O10 UNL     1      -0.768   5.545   0.266  1.00  0.00    -0.300 OA
ENDROOT
BRANCH   8  22
HETATM   22  O2  UNL     1      -0.339  -1.277   0.057  1.00  0.00    -0.220 OA
BRANCH  22  23
HETATM   23  C16 UNL     1      -1.471  -2.027  -0.323  1.00  0.00     0.295 C 
HETATM   24  O3  UNL     1      -1.885  -2.663   0.869  1.00  0.00    -0.325 OA
HETATM   25  C17 UNL     1      -3.006  -3.489   0.690  1.00  0.00     0.184 C 
HETATM   26  C18 UNL     1      -2.702  -4.566  -0.347  1.00  0.00     0.215 C 
HETATM   27  C19 UNL     1      -2.248  -3.938  -1.649  1.00  0.00     0.220 C 
HETATM   28  O6  UNL     1      -3.841  -5.346  -0.619  1.00  0.00    -0.218 OA
HETATM   29  C20 UNL     1      -1.058  -3.057  -1.349  1.00  0.00     0.243 C 
HETATM   30  O5  UNL     1      -1.883  -4.945  -2.557  1.00  0.00    -0.218 OA
HETATM   31  O4  UNL     1      -0.650  -2.408  -2.527  1.00  0.00    -0.215 OA
BRANCH  25  32
HETATM   32  C21 UNL     1      -3.361  -4.111   2.033  1.00  0.00     0.214 C 
HETATM   33  O7  UNL     1      -3.712  -3.103   2.960  1.00  0.00    -0.218 OA
ENDBRANCH  25  32
ENDBRANCH  22  23
ENDBRANCH   8  22
TORSDOF 3
