REMARK  2 active torsions:
REMARK  status: ('A' for Active; 'I' for Inactive)
REMARK    1  A    between atoms: C3_3  and  C30_33 
REMARK    2  A    between atoms: C16_16  and  C25_26 
ROOT
HETATM    1  C1  UNL     1      -3.676  -0.782  -2.741  1.00  0.00     0.182 C 
HETATM    2  C2  UNL     1      -3.949  -2.260  -2.536  1.00  0.00     0.185 C 
HETATM    3  C3  UNL     1      -3.147  -2.925  -1.394  1.00  0.00     0.061 C 
HETATM    4  C4  UNL     1      -3.241  -2.061  -0.086  1.00  0.00     0.005 C 
HETATM    5  C5  UNL     1      -3.139  -0.508  -0.190  1.00  0.00     0.003 C 
HETATM    6  C6  UNL     1      -3.891  -0.002  -1.452  1.00  0.00     0.036 C 
HETATM    7  C7  UNL     1      -1.644  -0.066  -0.175  1.00  0.00     0.005 C 
HETATM    8  C8  UNL     1      -0.720  -0.572   0.969  1.00  0.00     0.004 C 
HETATM    9  C9  UNL     1      -0.961  -2.084   1.195  1.00  0.00     0.000 C 
HETATM   10  C10 UNL     1      -2.420  -2.562   1.124  1.00  0.00     0.000 C 
HETATM   11  C11 UNL     1       0.792  -0.302   0.567  1.00  0.00     0.015 C 
HETATM   12  C12 UNL     1       0.969   1.207   0.460  1.00  0.00    -0.046 C 
HETATM   13  C13 UNL     1      -0.037   1.944  -0.047  1.00  0.00    -0.035 C 
HETATM   14  C14 UNL     1      -1.390   1.428  -0.461  1.00  0.00     0.025 C 
HETATM   15  C15 UNL     1       2.274   1.908   0.806  1.00  0.00     0.058 C 
HETATM   16  C16 UNL     1       3.155   1.179   1.850  1.00  0.00     0.084 C 
HETATM   17  C17 UNL     1       3.172  -0.340   1.582  1.00  0.00     0.011 C 
HETATM   18  C18 UNL     1       1.764  -0.945   1.590  1.00  0.00     0.004 C 
HETATM   19  C19 UNL     1       4.612   1.700   1.784  1.00  0.00     0.011 C 
HETATM   20  C20 UNL     1       4.670   3.175   1.373  1.00  0.00     0.003 C 
HETATM   21  C21 UNL     1       4.190   3.382  -0.083  1.00  0.00     0.029 C 
HETATM   22  C22 UNL     1       3.040   2.408  -0.428  1.00  0.00     0.156 C 
HETATM   23  O1  UNL     1       3.496   1.306  -1.169  1.00  0.00    -0.223 OA
HETATM   24  C23 UNL     1       3.688   4.840  -0.222  1.00  0.00     0.003 C 
HETATM   25  C24 UNL     1       5.383   3.224  -1.053  1.00  0.00     0.003 C 
HETATM   26  C26 UNL     1       1.185  -0.879  -0.823  1.00  0.00     0.004 C 
HETATM   27  C27 UNL     1      -1.048   0.178   2.293  1.00  0.00     0.000 C 
HETATM   28  C28 UNL     1      -3.936   0.136   0.983  1.00  0.00     0.000 C 
HETATM   29  C29 UNL     1      -3.779  -4.324  -1.129  1.00  0.00     0.005 C 
HETATM   30  O5  UNL     1      -5.333  -2.406  -2.297  1.00  0.00    -0.221 OA
HETATM   31  O6  UNL     1      -2.396  -0.551  -3.273  1.00  0.00    -0.221 OA
ENDROOT
BRANCH   3  32
HETATM   32  C30 UNL     1      -1.712  -3.226  -1.868  1.00  0.00     0.185 C 
HETATM   33  O4  UNL     1      -1.700  -4.018  -3.041  1.00  0.00    -0.221 OA
ENDBRANCH   3  32
BRANCH  16  34
HETATM   34  C25 UNL     1       2.679   1.365   3.300  1.00  0.00     0.184 C 
HETATM   35  O2  UNL     1       1.778   2.348   3.474  1.00  0.00    -0.647 OA
HETATM   36  O3  UNL     1       3.057   0.723   4.252  1.00  0.00    -0.647 OA
ENDBRANCH  16  34
TORSDOF 2
