REMARK  6 active torsions:
REMARK  status: ('A' for Active; 'I' for Inactive)
REMARK    1  A    between atoms: C5_5  and  C7_7 
REMARK    2  A    between atoms: C8_8  and  C9_9 
REMARK       I    between atoms: C9_9  and  N1_10 
REMARK    3  A    between atoms: N1_10  and  C10_11 
REMARK    4  A    between atoms: C10_11  and  C11_12 
REMARK    5  A    between atoms: C11_12  and  C12_13 
REMARK    6  A    between atoms: C15_16  and  O1_19 
ROOT
HETATM    1  C9  UNL     1      -0.432  -1.158   0.090  1.00  0.00     0.275 C 
HETATM    2  N1  UNL     1      -0.021   0.143  -0.009  1.00  0.00    -0.234 NA
HETATM    3  O2  UNL     1       0.361  -2.069   0.130  1.00  0.00    -0.266 OA
ENDROOT
BRANCH   1   4
HETATM    4  C8  UNL     1      -1.780  -1.324   0.135  1.00  0.00     0.062 C 
HETATM    5  C7  UNL     1      -2.349  -2.541   0.227  1.00  0.00     0.005 C 
BRANCH   5   6
HETATM    6  C5  UNL     1      -3.663  -2.850   0.278  1.00  0.00     0.002 A 
HETATM    7  C4  UNL     1      -4.012  -4.155   0.368  1.00  0.00     0.002 A 
HETATM    8  C3  UNL     1      -5.291  -4.564   0.423  1.00  0.00     0.026 A 
HETATM    9  C2  UNL     1      -6.247  -3.632   0.385  1.00  0.00     0.119 A 
HETATM   10  C1  UNL     1      -5.929  -2.337   0.296  1.00  0.00     0.119 A 
HETATM   11  O3  UNL     1      -7.463  -3.798   0.422  1.00  0.00    -0.300 OA
HETATM   12  C6  UNL     1      -4.653  -1.933   0.243  1.00  0.00     0.026 A 
HETATM   13  O4  UNL     1      -6.939  -1.636   0.274  1.00  0.00    -0.300 OA
HETATM   14  C19 UNL     1      -8.069  -2.507   0.354  1.00  0.00     0.304 A 
ENDBRANCH   5   6
ENDBRANCH   1   4
BRANCH   2  15
HETATM   15  C10 UNL     1       1.402   0.490  -0.079  1.00  0.00     0.134 C 
BRANCH  15  16
HETATM   16  C11 UNL     1       1.604   2.009  -0.168  1.00  0.00     0.053 C 
BRANCH  16  17
HETATM   17  C12 UNL     1       3.044   2.485  -0.253  1.00  0.00    -0.020 A 
HETATM   18  C13 UNL     1       3.304   3.801  -0.339  1.00  0.00    -0.002 A 
HETATM   19  C14 UNL     1       4.562   4.259  -0.416  1.00  0.00     0.024 A 
HETATM   20  C15 UNL     1       5.634   3.443  -0.414  1.00  0.00     0.094 A 
HETATM   21  C16 UNL     1       5.361   2.127  -0.327  1.00  0.00     0.024 A 
HETATM   22  C17 UNL     1       4.105   1.659  -0.249  1.00  0.00    -0.002 A 
BRANCH  20  23
HETATM   23  O1  UNL     1       6.892   3.992  -0.497  1.00  0.00    -0.328 OA
HETATM   24  C18 UNL     1       8.008   3.131  -0.492  1.00  0.00     0.181 C 
ENDBRANCH  20  23
ENDBRANCH  16  17
ENDBRANCH  15  16
ENDBRANCH   2  15
TORSDOF 6
