REMARK  2 active torsions:
REMARK  status: ('A' for Active; 'I' for Inactive)
REMARK    1  A    between atoms: C6_7  and  O6_43 
REMARK    2  A    between atoms: C26_28  and  O3_34 
ROOT
HETATM    1  C1  UNL     1       0.412   3.175  -1.646  1.00  0.00     0.130 C 
HETATM    2  N1  UNL     1       0.342   1.955  -0.842  1.00  0.00    -0.270 NA
HETATM    3  C2  UNL     1      -0.707   1.527  -0.259  1.00  0.00     0.076 C 
HETATM    4  C3  UNL     1      -1.858   2.233  -0.246  1.00  0.00     0.017 A 
HETATM    5  C4  UNL     1      -1.863   3.517  -0.682  1.00  0.00     0.006 A 
HETATM    6  C5  UNL     1      -0.557   4.188  -1.063  1.00  0.00     0.055 C 
HETATM    7  C6  UNL     1      -2.977   4.284  -0.721  1.00  0.00     0.114 A 
HETATM    8  C7  UNL     1      -4.080   3.680  -0.255  1.00  0.00     0.141 A 
HETATM    9  C8  UNL     1      -4.086   2.421   0.205  1.00  0.00     0.121 A 
HETATM   10  C9  UNL     1      -2.980   1.647   0.235  1.00  0.00     0.026 A 
HETATM   11  C10 UNL     1      -2.929   0.383   0.728  1.00  0.00     0.002 C 
HETATM   12  C11 UNL     1      -1.733  -0.244   0.841  1.00  0.00     0.002 C 
HETATM   13  C12 UNL     1      -0.611   0.318   0.336  1.00  0.00     0.019 C 
HETATM   14  C13 UNL     1       0.584  -0.332   0.351  1.00  0.00     0.019 A 
HETATM   15  C14 UNL     1       1.682   0.220   0.917  1.00  0.00     0.002 A 
HETATM   16  C15 UNL     1       1.580   1.386   1.592  1.00  0.00     0.000 A 
HETATM   17  C16 UNL     1       2.634   2.006   2.136  1.00  0.00     0.000 A 
HETATM   18  C17 UNL     1       3.830   1.425   2.032  1.00  0.00     0.000 A 
HETATM   19  C18 UNL     1       3.927   0.238   1.418  1.00  0.00     0.000 A 
HETATM   20  C19 UNL     1       2.882  -0.407   0.853  1.00  0.00     0.002 A 
HETATM   21  C20 UNL     1       2.968  -1.643   0.296  1.00  0.00     0.026 A 
HETATM   22  C21 UNL     1       1.859  -2.237  -0.206  1.00  0.00     0.017 A 
HETATM   23  C22 UNL     1       0.703  -1.539  -0.244  1.00  0.00     0.076 A 
HETATM   24  N2  UNL     1      -0.324  -1.971  -0.861  1.00  0.00    -0.270 NA
HETATM   25  C23 UNL     1      -0.367  -3.192  -1.666  1.00  0.00     0.130 C 
HETATM   26  C24 UNL     1       0.586  -4.199  -1.047  1.00  0.00     0.055 C 
HETATM   27  C25 UNL     1       1.882  -3.518  -0.651  1.00  0.00     0.006 A 
HETATM   28  C26 UNL     1       3.005  -4.271  -0.688  1.00  0.00     0.114 A 
HETATM   29  C27 UNL     1       4.105  -3.645  -0.242  1.00  0.00     0.141 A 
HETATM   30  C28 UNL     1       4.095  -2.380   0.204  1.00  0.00     0.121 A 
HETATM   31  O1  UNL     1       5.235  -2.044   0.526  1.00  0.00    -0.299 OA
HETATM   32  C29 UNL     1       6.112  -3.144   0.322  1.00  0.00     0.304 A 
HETATM   33  O2  UNL     1       5.236  -4.123  -0.209  1.00  0.00    -0.298 OA
HETATM   34  C31 UNL     1      -1.668  -1.426   1.494  1.00  0.00     0.000 C 
HETATM   35  C32 UNL     1      -2.755  -2.073   1.930  1.00  0.00     0.000 C 
HETATM   36  C33 UNL     1      -3.950  -1.517   1.720  1.00  0.00     0.000 C 
HETATM   37  C34 UNL     1      -4.014  -0.310   1.141  1.00  0.00     0.000 C 
HETATM   38  O4  UNL     1      -5.212   2.131   0.608  1.00  0.00    -0.299 OA
HETATM   39  C35 UNL     1      -6.085   3.224   0.350  1.00  0.00     0.304 A 
HETATM   40  O5  UNL     1      -5.199   4.184  -0.201  1.00  0.00    -0.298 OA
ENDROOT
BRANCH   7  41
HETATM   41  O6  UNL     1      -2.885   5.606  -1.095  1.00  0.00    -0.326 OA
HETATM   42  C36 UNL     1      -3.855   6.532  -0.666  1.00  0.00     0.181 C 
ENDBRANCH   7  41
BRANCH  28  43
HETATM   43  O3  UNL     1       2.927  -5.593  -1.067  1.00  0.00    -0.326 OA
HETATM   44  C30 UNL     1       3.924  -6.508  -0.678  1.00  0.00     0.181 C 
ENDBRANCH  28  43
TORSDOF 2
