REMARK  1 active torsions:
REMARK  status: ('A' for Active; 'I' for Inactive)
REMARK    1  A    between atoms: C6_7  and  O5_24 
ROOT
HETATM    1  C1  UNL     1       2.979   1.546   0.221  1.00  0.00     0.112 C 
HETATM    2  N1  UNL     1       2.821   0.116   0.062  1.00  0.00    -0.292 N 
HETATM    3  C2  UNL     1       1.810  -0.376  -0.828  1.00  0.00     0.140 A 
HETATM    4  C3  UNL     1       0.500   0.231  -0.422  1.00  0.00     0.001 A 
HETATM    5  C4  UNL     1       0.526   1.581  -0.348  1.00  0.00     0.002 A 
HETATM    6  C5  UNL     1       1.870   2.272  -0.565  1.00  0.00     0.052 C 
HETATM    7  C6  UNL     1      -0.575   2.310  -0.074  1.00  0.00     0.114 A 
HETATM    8  C7  UNL     1      -1.687   1.571   0.081  1.00  0.00     0.141 A 
HETATM    9  C8  UNL     1      -1.700   0.227   0.036  1.00  0.00     0.121 A 
HETATM   10  C9  UNL     1      -0.593  -0.522  -0.169  1.00  0.00     0.022 A 
HETATM   11  C10 UNL     1      -0.522  -1.881  -0.124  1.00  0.00     0.000 A 
HETATM   12  C11 UNL     1       0.646  -2.549  -0.298  1.00  0.00     0.007 A 
HETATM   13  C12 UNL     1       1.963  -1.871  -0.580  1.00  0.00     0.173 A 
HETATM   14  O1  UNL     1       2.915  -2.063   0.468  1.00  0.00    -0.281 OA
HETATM   15  C13 UNL     1       3.425  -0.848   0.794  1.00  0.00     0.366 A 
HETATM   16  O2  UNL     1       4.271  -0.646   1.635  1.00  0.00    -0.238 OA
HETATM   17  C14 UNL     1       0.714  -3.893  -0.222  1.00  0.00    -0.002 A 
HETATM   18  C15 UNL     1      -0.363  -4.642   0.035  1.00  0.00    -0.000 A 
HETATM   19  C16 UNL     1      -1.526  -4.014   0.227  1.00  0.00    -0.000 A 
HETATM   20  C17 UNL     1      -1.583  -2.675   0.151  1.00  0.00    -0.000 A 
HETATM   21  O3  UNL     1      -2.844  -0.187   0.223  1.00  0.00    -0.299 OA
HETATM   22  C18 UNL     1      -3.702   0.923   0.449  1.00  0.00     0.304 A 
HETATM   23  O4  UNL     1      -2.809   2.014   0.315  1.00  0.00    -0.298 OA
ENDROOT
BRANCH   7  24
HETATM   24  O5  UNL     1      -0.480   3.683  -0.032  1.00  0.00    -0.326 OA
HETATM   25  C19 UNL     1      -1.632   4.485   0.055  1.00  0.00     0.181 C 
ENDBRANCH   7  24
TORSDOF 1
