REMARK  5 active torsions:
REMARK  status: ('A' for Active; 'I' for Inactive)
REMARK    1  A    between atoms: C1_2  and  O2_3 
REMARK    2  A    between atoms: O2_3  and  C2_4 
REMARK    3  A    between atoms: C14_17  and  C15_18 
REMARK    4  A    between atoms: C15_18  and  O4_19 
REMARK    5  A    between atoms: O4_19  and  C16_20 
ROOT
HETATM    1  C2  UNL     1      -2.888  -0.193  -1.541  1.00  0.00     0.147 C 
HETATM    2  C3  UNL     1      -2.937   1.340  -1.348  1.00  0.00     0.060 C 
HETATM    3  C4  UNL     1      -1.585   1.860  -0.905  1.00  0.00    -0.028 C 
HETATM    4  C5  UNL     1      -1.242   1.997   0.388  1.00  0.00    -0.030 C 
HETATM    5  C6  UNL     1       0.152   2.284   0.890  1.00  0.00     0.030 C 
HETATM    6  C7  UNL     1       1.250   1.342   0.361  1.00  0.00     0.029 C 
HETATM    7  C8  UNL     1       1.230  -0.095   0.837  1.00  0.00    -0.009 A 
HETATM    8  C9  UNL     1      -0.058  -0.875   1.003  1.00  0.00     0.164 A 
HETATM    9  C10 UNL     1      -0.896  -0.822  -0.246  1.00  0.00     0.002 C 
HETATM   10  C11 UNL     1      -2.240  -0.759  -0.285  1.00  0.00    -0.018 C 
HETATM   11  C12 UNL     1      -3.127  -0.977   0.918  1.00  0.00     0.029 C 
HETATM   12  O3  UNL     1       0.354  -2.193   1.319  1.00  0.00    -0.292 OA
HETATM   13  C13 UNL     1       1.716  -2.131   1.356  1.00  0.00     0.294 A 
HETATM   14  C14 UNL     1       2.263  -0.920   1.076  1.00  0.00     0.066 A 
HETATM   15  O6  UNL     1       2.395  -3.104   1.601  1.00  0.00    -0.259 OA
ENDROOT
BRANCH  14  16
HETATM   16  C15 UNL     1       3.755  -0.691   1.020  1.00  0.00     0.183 C 
BRANCH  16  17
HETATM   17  O4  UNL     1       4.128   0.667   1.082  1.00  0.00    -0.297 OA
BRANCH  17  18
HETATM   18  C16 UNL     1       5.459   0.946   1.108  1.00  0.00     0.273 C 
HETATM   19  C17 UNL     1       5.674   2.444   1.185  1.00  0.00     0.106 C 
HETATM   20  O5  UNL     1       6.342   0.119   1.072  1.00  0.00    -0.264 OA
ENDBRANCH  17  18
ENDBRANCH  16  17
ENDBRANCH  14  16
BRANCH   1  21
HETATM   21  O2  UNL     1      -4.197  -0.652  -1.767  1.00  0.00    -0.300 OA
BRANCH  21  22
HETATM   22  C1  UNL     1      -4.469  -1.931  -2.153  1.00  0.00     0.273 C 
HETATM   23  O1  UNL     1      -5.605  -2.328  -2.303  1.00  0.00    -0.264 OA
HETATM   24  C18 UNL     1      -3.276  -2.837  -2.406  1.00  0.00     0.106 C 
ENDBRANCH  21  22
ENDBRANCH   1  21
TORSDOF 5
