REMARK  8 active torsions:
REMARK  status: ('A' for Active; 'I' for Inactive)
REMARK    1  A    between atoms: C2_2  and  C31_37 
REMARK    2  A    between atoms: C12_14  and  C25_28 
REMARK    3  A    between atoms: C13_15  and  C15_18 
REMARK    4  A    between atoms: C15_18  and  C16_19 
REMARK    5  A    between atoms: C17_20  and  C18_21 
REMARK    6  A    between atoms: C18_21  and  C19_22 
REMARK    7  A    between atoms: C19_22  and  C20_23 
REMARK    8  A    between atoms: C31_37  and  C32_38 
ROOT
HETATM    1  C1  UNL     1       3.923   1.220   0.072  1.00  0.00     0.094 A 
HETATM    2  C2  UNL     1       3.562   2.389  -0.618  1.00  0.00     0.030 A 
HETATM    3  C3  UNL     1       2.243   2.607  -1.051  1.00  0.00     0.134 A 
HETATM    4  C4  UNL     1       1.273   1.619  -0.789  1.00  0.00     0.087 A 
HETATM    5  C5  UNL     1       1.591   0.443  -0.105  1.00  0.00     0.107 A 
HETATM    6  C6  UNL     1       2.929   0.250   0.277  1.00  0.00     0.045 A 
HETATM    7  C7  UNL     1       3.325  -0.983   0.965  1.00  0.00     0.002 C 
HETATM    8  C8  UNL     1       4.637  -1.254   1.067  1.00  0.00     0.001 C 
HETATM    9  C9  UNL     1       5.657  -0.344   0.426  1.00  0.00     0.117 C 
HETATM   10  O1  UNL     1       5.225   0.992   0.438  1.00  0.00    -0.332 OA
HETATM   11  C10 UNL     1       6.980  -0.408   1.196  1.00  0.00     0.035 C 
HETATM   12  C11 UNL     1       5.881  -0.780  -1.028  1.00  0.00     0.035 C 
HETATM   13  O2  UNL     1       0.676  -0.540   0.116  1.00  0.00    -0.307 OA
HETATM   14  C12 UNL     1      -0.649  -0.215   0.119  1.00  0.00     0.101 C 
HETATM   15  C13 UNL     1      -1.135   0.842  -0.581  1.00  0.00     0.044 C 
HETATM   16  C14 UNL     1      -0.149   1.782  -1.190  1.00  0.00     0.198 C 
HETATM   17  O3  UNL     1      -0.534   2.703  -1.902  1.00  0.00    -0.287 OA
HETATM   18  O6  UNL     1       1.961   3.752  -1.735  1.00  0.00    -0.190 OA
ENDROOT
BRANCH  15  19
HETATM   19  C15 UNL     1      -2.599   1.188  -0.791  1.00  0.00     0.057 C 
BRANCH  19  20
HETATM   20  C16 UNL     1      -3.542   0.012  -0.849  1.00  0.00    -0.030 C 
HETATM   21  C17 UNL     1      -4.774  -0.069  -0.313  1.00  0.00    -0.048 C 
HETATM   22  C24 UNL     1      -5.445   1.058   0.442  1.00  0.00     0.026 C 
BRANCH  21  23
HETATM   23  C18 UNL     1      -5.636  -1.317  -0.388  1.00  0.00     0.026 C 
BRANCH  23  24
HETATM   24  C19 UNL     1      -5.041  -2.554  -1.082  1.00  0.00     0.030 C 
BRANCH  24  25
HETATM   25  C20 UNL     1      -5.965  -3.744  -0.979  1.00  0.00    -0.034 C 
HETATM   26  C21 UNL     1      -5.602  -5.038  -0.927  1.00  0.00    -0.048 C 
HETATM   27  C22 UNL     1      -6.634  -6.134  -0.791  1.00  0.00     0.026 C 
HETATM   28  C23 UNL     1      -4.177  -5.533  -0.997  1.00  0.00     0.026 C 
ENDBRANCH  24  25
ENDBRANCH  23  24
ENDBRANCH  21  23
ENDBRANCH  19  20
ENDBRANCH  15  19
BRANCH  14  29
HETATM   29  C25 UNL     1      -1.542  -1.179   0.824  1.00  0.00     0.048 A 
HETATM   30  C26 UNL     1      -1.349  -2.546   0.584  1.00  0.00     0.006 A 
HETATM   31  C27 UNL     1      -2.128  -3.502   1.231  1.00  0.00     0.028 A 
HETATM   32  C28 UNL     1      -3.127  -3.122   2.130  1.00  0.00     0.133 A 
HETATM   33  C29 UNL     1      -3.268  -1.758   2.398  1.00  0.00     0.055 A 
HETATM   34  O5  UNL     1      -3.915  -4.042   2.746  1.00  0.00    -0.190 OA
HETATM   35  C30 UNL     1      -2.481  -0.777   1.784  1.00  0.00     0.135 A 
HETATM   36  O4  UNL     1      -2.622   0.531   2.118  1.00  0.00    -0.190 OA
ENDBRANCH  14  29
BRANCH   2  37
HETATM   37  C31 UNL     1       4.606   3.452  -0.921  1.00  0.00     0.056 C 
BRANCH  37  38
HETATM   38  C32 UNL     1       4.289   4.768  -0.256  1.00  0.00    -0.030 C 
HETATM   39  C33 UNL     1       4.874   5.946  -0.539  1.00  0.00    -0.048 C 
HETATM   40  C34 UNL     1       4.478   7.215   0.178  1.00  0.00     0.026 C 
HETATM   41  C35 UNL     1       5.968   6.119  -1.565  1.00  0.00     0.026 C 
ENDBRANCH  37  38
ENDBRANCH   2  37
TORSDOF 8
