REMARK  3 active torsions:
REMARK  status: ('A' for Active; 'I' for Inactive)
REMARK    1  A    between atoms: C3_3  and  C16_22 
REMARK    2  A    between atoms: C7_8  and  C10_13 
REMARK    3  A    between atoms: C17_23  and  C18_24 
ROOT
HETATM    1  C1  UNL     1      -1.321   0.852   1.235  1.00  0.00     0.052 A 
HETATM    2  C2  UNL     1      -2.005  -0.338   1.481  1.00  0.00     0.135 A 
HETATM    3  C3  UNL     1      -1.532  -1.512   0.877  1.00  0.00     0.051 A 
HETATM    4  C4  UNL     1      -0.415  -1.491   0.022  1.00  0.00     0.138 A 
HETATM    5  C5  UNL     1       0.248  -0.263  -0.187  1.00  0.00     0.085 A 
HETATM    6  C6  UNL     1      -0.170   0.924   0.448  1.00  0.00     0.101 A 
HETATM    7  O1  UNL     1       0.423   2.144   0.281  1.00  0.00    -0.326 OA
HETATM    8  C7  UNL     1       1.217   2.307  -0.861  1.00  0.00     0.183 C 
HETATM    9  C8  UNL     1       2.189   1.153  -1.017  1.00  0.00     0.245 C 
HETATM   10  C9  UNL     1       1.464  -0.184  -1.042  1.00  0.00     0.210 C 
HETATM   11  O2  UNL     1       1.908  -1.123  -1.690  1.00  0.00    -0.288 OA
HETATM   12  O3  UNL     1       2.936   1.389  -2.199  1.00  0.00    -0.212 OA
HETATM   13  O6  UNL     1       0.050  -2.662  -0.494  1.00  0.00    -0.190 OA
HETATM   14  O7  UNL     1      -3.114  -0.336   2.270  1.00  0.00    -0.190 OA
ENDROOT
BRANCH   8  15
HETATM   15  C10 UNL     1       2.008   3.603  -0.796  1.00  0.00     0.034 A 
HETATM   16  C11 UNL     1       2.040   4.440  -1.917  1.00  0.00     0.002 A 
HETATM   17  C12 UNL     1       2.786   5.618  -1.923  1.00  0.00     0.027 A 
HETATM   18  C13 UNL     1       3.533   5.995  -0.805  1.00  0.00     0.133 A 
HETATM   19  C14 UNL     1       3.505   5.142   0.300  1.00  0.00     0.054 A 
HETATM   20  O5  UNL     1       4.269   7.137  -0.787  1.00  0.00    -0.190 OA
HETATM   21  C15 UNL     1       2.772   3.950   0.331  1.00  0.00     0.131 A 
HETATM   22  O4  UNL     1       2.808   3.179   1.451  1.00  0.00    -0.190 OA
ENDBRANCH   8  15
BRANCH   3  23
HETATM   23  C16 UNL     1      -2.200  -2.777   1.267  1.00  0.00    -0.001 C 
HETATM   24  C17 UNL     1      -2.460  -3.820   0.460  1.00  0.00    -0.026 C 
BRANCH  24  25
HETATM   25  C18 UNL     1      -3.169  -5.072   0.933  1.00  0.00     0.022 C 
HETATM   26  C19 UNL     1      -4.633  -5.045   0.466  1.00  0.00     0.005 C 
HETATM   27  C20 UNL     1      -2.446  -6.332   0.435  1.00  0.00     0.005 C 
ENDBRANCH  24  25
ENDBRANCH   3  23
TORSDOF 3
