REMARK  9 active torsions:
REMARK  status: ('A' for Active; 'I' for Inactive)
REMARK    1  A    between atoms: C3_3  and  O4_10 
REMARK    2  A    between atoms: C4_5  and  C6_8 
REMARK    3  A    between atoms: O4_10  and  C7_11 
REMARK    4  A    between atoms: C21_26  and  C24_30 
REMARK    5  A    between atoms: C24_30  and  C26_33 
REMARK    6  A    between atoms: C26_33  and  C27_34 
REMARK    7  A    between atoms: C28_35  and  C29_36 
REMARK    8  A    between atoms: C29_36  and  O8_39 
REMARK    9  A    between atoms: O8_39  and  C32_40 
ROOT
HETATM    1  C7  UNL     1      -3.989  -0.837  -2.593  1.00  0.00     0.175 C 
HETATM    2  C8  UNL     1      -4.156  -2.351  -2.565  1.00  0.00     0.180 C 
HETATM    3  C9  UNL     1      -2.955  -3.258  -2.296  1.00  0.00     0.069 C 
HETATM    4  C10 UNL     1      -1.645  -2.545  -1.981  1.00  0.00    -0.042 C 
HETATM    5  C11 UNL     1      -1.545  -1.036  -1.841  1.00  0.00     0.028 C 
HETATM    6  C12 UNL     1      -2.943  -0.447  -1.559  1.00  0.00     0.042 C 
HETATM    7  C13 UNL     1      -0.444  -0.590  -0.806  1.00  0.00     0.055 C 
HETATM    8  C14 UNL     1       0.868  -1.445  -0.898  1.00  0.00     0.011 C 
HETATM    9  C15 UNL     1       0.820  -2.558  -1.955  1.00  0.00     0.026 C 
HETATM   10  C16 UNL     1      -0.504  -3.251  -1.960  1.00  0.00    -0.034 C 
HETATM   11  C17 UNL     1       2.189  -0.624  -1.017  1.00  0.00     0.004 C 
HETATM   12  C18 UNL     1       2.258   0.477   0.086  1.00  0.00     0.012 C 
HETATM   13  C19 UNL     1       1.140   1.484  -0.230  1.00  0.00     0.065 C 
HETATM   14  C20 UNL     1      -0.068   0.896  -0.961  1.00  0.00     0.150 C 
HETATM   15  O5  UNL     1      -0.727   1.636  -1.659  1.00  0.00    -0.296 OA
HETATM   16  C21 UNL     1       3.724   0.996  -0.038  1.00  0.00     0.066 C 
HETATM   17  C22 UNL     1       4.513  -0.310  -0.264  1.00  0.00     0.155 C 
HETATM   18  C23 UNL     1       3.498  -1.384  -0.701  1.00  0.00     0.033 C 
HETATM   19  O6  UNL     1       5.480  -0.151  -1.277  1.00  0.00    -0.223 OA
HETATM   20  C34 UNL     1       2.118  -0.103   1.517  1.00  0.00     0.001 C 
HETATM   21  C35 UNL     1       2.318  -0.094  -2.477  1.00  0.00     0.000 C 
HETATM   22  C36 UNL     1      -1.091  -0.669   0.603  1.00  0.00     0.008 C 
HETATM   23  C37 UNL     1      -3.319  -4.176  -1.111  1.00  0.00     0.011 C 
HETATM   24  C38 UNL     1      -2.812  -4.099  -3.588  1.00  0.00     0.011 C 
HETATM   25  O11 UNL     1      -5.244  -2.832  -2.801  1.00  0.00    -0.293 OA
ENDROOT
BRANCH  16  26
HETATM   26  C24 UNL     1       4.299   2.075   0.912  1.00  0.00     0.184 C 
HETATM   27  O7  UNL     1       3.715   3.312   0.519  1.00  0.00    -0.218 OA
HETATM   28  C25 UNL     1       5.813   2.248   0.743  1.00  0.00     0.041 C 
BRANCH  26  29
HETATM   29  C26 UNL     1       3.998   1.957   2.405  1.00  0.00     0.200 C 
HETATM   30  O10 UNL     1       3.322   2.857   2.893  1.00  0.00    -0.289 OA
BRANCH  29  31
HETATM   31  C27 UNL     1       4.505   0.831   3.222  1.00  0.00     0.038 C 
HETATM   32  C28 UNL     1       3.990   0.579   4.444  1.00  0.00     0.004 C 
BRANCH  32  33
HETATM   33  C29 UNL     1       4.342  -0.639   5.295  1.00  0.00     0.120 C 
HETATM   34  C30 UNL     1       3.744  -0.420   6.692  1.00  0.00     0.035 C 
HETATM   35  C31 UNL     1       3.697  -1.837   4.588  1.00  0.00     0.035 C 
BRANCH  33  36
HETATM   36  O8  UNL     1       5.743  -0.685   5.368  1.00  0.00    -0.302 OA
BRANCH  36  37
HETATM   37  C32 UNL     1       6.544  -1.683   5.838  1.00  0.00     0.273 C 
HETATM   38  O9  UNL     1       7.746  -1.531   5.921  1.00  0.00    -0.264 OA
HETATM   39  C33 UNL     1       5.932  -3.019   6.206  1.00  0.00     0.106 C 
ENDBRANCH  36  37
ENDBRANCH  33  36
ENDBRANCH  32  33
ENDBRANCH  29  31
ENDBRANCH  26  29
ENDBRANCH  16  26
BRANCH   1  40
HETATM   40  O4  UNL     1      -5.244  -0.250  -2.309  1.00  0.00    -0.324 OA
BRANCH  40  41
HETATM   41  C3  UNL     1      -5.362   1.129  -2.579  1.00  0.00     0.270 C 
HETATM   42  C2  UNL     1      -6.796   1.371  -2.991  1.00  0.00     0.241 C 
HETATM   43  C1  UNL     1      -7.012   2.853  -3.186  1.00  0.00     0.220 C 
HETATM   44  O12 UNL     1      -7.059   0.696  -4.194  1.00  0.00    -0.215 OA
HETATM   45  C5  UNL     1      -6.645   3.561  -1.897  1.00  0.00     0.215 C 
HETATM   46  O13 UNL     1      -8.362   3.095  -3.490  1.00  0.00    -0.218 OA
HETATM   47  C4  UNL     1      -5.223   3.195  -1.478  1.00  0.00     0.184 C 
HETATM   48  O2  UNL     1      -6.791   4.940  -2.124  1.00  0.00    -0.218 OA
HETATM   49  O1  UNL     1      -5.110   1.799  -1.362  1.00  0.00    -0.326 OA
BRANCH  47  50
HETATM   50  C6  UNL     1      -4.815   3.794  -0.138  1.00  0.00     0.214 C 
HETATM   51  O3  UNL     1      -4.536   5.173  -0.270  1.00  0.00    -0.218 OA
ENDBRANCH  47  50
ENDBRANCH  40  41
ENDBRANCH   1  40
TORSDOF 9
