REMARK  2 active torsions:
REMARK  status: ('A' for Active; 'I' for Inactive)
REMARK    1  A    between atoms: C4_5  and  C6_7 
REMARK    2  A    between atoms: C7_8  and  C8_9 
ROOT
HETATM    1  C1  UNL     1      -2.675  -1.397   0.271  1.00  0.00     0.099 A 
HETATM    2  N1  UNL     1      -2.456  -2.711   0.361  1.00  0.00    -0.242 NA
HETATM    3  C2  UNL     1      -1.180  -3.107   0.303  1.00  0.00     0.099 A 
HETATM    4  C3  UNL     1      -0.100  -2.232   0.161  1.00  0.00     0.021 A 
HETATM    5  C4  UNL     1      -0.323  -0.847   0.073  1.00  0.00     0.005 A 
HETATM    6  C5  UNL     1      -1.665  -0.440   0.128  1.00  0.00     0.021 A 
ENDROOT
BRANCH   5   7
HETATM    7  C6  UNL     1       0.839   0.047  -0.065  1.00  0.00     0.034 C 
HETATM    8  C7  UNL     1       0.842   1.402  -0.134  1.00  0.00     0.195 C 
HETATM    9  O3  UNL     1      -0.257   2.201  -0.089  1.00  0.00    -0.184 OA
BRANCH   8  10
HETATM   10  C8  UNL     1       2.131   2.129  -0.259  1.00  0.00     0.237 C 
HETATM   11  O1  UNL     1       2.149   3.476  -0.313  1.00  0.00    -0.642 OA
HETATM   12  O2  UNL     1       3.213   1.556  -0.309  1.00  0.00    -0.642 OA
ENDBRANCH   8  10
ENDBRANCH   5   7
TORSDOF 2
