REMARK  3 active torsions:
REMARK  status: ('A' for Active; 'I' for Inactive)
REMARK    1  A    between atoms: C11_13  and  O4_21 
REMARK    2  A    between atoms: O4_21  and  C18_22 
REMARK    3  A    between atoms: C18_22  and  C19_24 
ROOT
HETATM    1  C1  UNL     1      -3.926   0.421  -2.206  1.00  0.00     0.145 A 
HETATM    2  C2  UNL     1      -3.382  -0.943  -1.777  1.00  0.00     0.056 C 
HETATM    3  C3  UNL     1      -2.098  -0.613  -0.955  1.00  0.00     0.161 C 
HETATM    4  C4  UNL     1      -1.653   0.762  -1.484  1.00  0.00     0.088 C 
HETATM    5  C5  UNL     1      -2.917   1.375  -2.090  1.00  0.00     0.147 A 
HETATM    6  O1  UNL     1      -4.049   1.429  -1.051  1.00  0.00    -0.354 OA
HETATM    7  C6  UNL     1      -0.713   1.681  -0.641  1.00  0.00     0.132 C 
HETATM    8  C7  UNL     1      -0.059   1.135   0.675  1.00  0.00     0.031 C 
HETATM    9  C8  UNL     1       0.601  -0.318   0.648  1.00  0.00     0.033 C 
HETATM   10  C9  UNL     1       0.428  -1.096  -0.670  1.00  0.00     0.038 C 
HETATM   11  C10 UNL     1      -0.963  -1.622  -1.028  1.00  0.00     0.180 C 
HETATM   12  O2  UNL     1      -1.306  -2.725  -0.226  1.00  0.00    -0.221 OA
HETATM   13  C11 UNL     1       2.088  -0.053   0.957  1.00  0.00     0.127 C 
HETATM   14  C12 UNL     1       1.939   0.328   2.445  1.00  0.00     0.056 C 
HETATM   15  C13 UNL     1       1.880   1.863   2.442  1.00  0.00     0.005 C 
HETATM   16  C14 UNL     1       0.835   2.276   1.348  1.00  0.00     0.003 C 
HETATM   17  C15 UNL     1       1.189  -0.864   3.062  1.00  0.00     0.129 C 
HETATM   18  C16 UNL     1       0.259  -1.247   1.875  1.00  0.00     0.033 C 
HETATM   19  C17 UNL     1       0.453  -0.650   4.394  1.00  0.00     0.033 C 
HETATM   20  O3  UNL     1       2.114  -1.894   3.300  1.00  0.00    -0.226 OA
HETATM   21  C21 UNL     1      -1.446   3.004  -0.334  1.00  0.00     0.033 C 
HETATM   22  O7  UNL     1       0.345   2.040  -1.502  1.00  0.00    -0.226 OA
HETATM   23  O8  UNL     1      -2.468  -0.523   0.393  1.00  0.00    -0.223 OA
HETATM   24  C22 UNL     1      -4.442  -1.732  -0.979  1.00  0.00     0.005 C 
HETATM   25  C23 UNL     1      -3.104  -1.743  -3.071  1.00  0.00     0.005 C 
ENDROOT
BRANCH  13  26
HETATM   26  O4  UNL     1       2.896  -1.184   0.828  1.00  0.00    -0.302 OA
BRANCH  26  27
HETATM   27  C18 UNL     1       3.961  -1.313  -0.013  1.00  0.00     0.302 C 
HETATM   28  O5  UNL     1       4.491  -2.389  -0.195  1.00  0.00    -0.261 OA
BRANCH  27  29
HETATM   29  C19 UNL     1       4.551  -0.071  -0.684  1.00  0.00     0.237 C 
HETATM   30  O6  UNL     1       4.726   1.022   0.198  1.00  0.00    -0.213 OA
HETATM   31  C20 UNL     1       3.846   0.348  -1.971  1.00  0.00     0.046 C 
ENDBRANCH  27  29
ENDBRANCH  26  27
ENDBRANCH  13  26
TORSDOF 3
