REMARK  5 active torsions:
REMARK  status: ('A' for Active; 'I' for Inactive)
REMARK    1  A    between atoms: C2_2  and  O3_12 
REMARK    2  A    between atoms: O3_12  and  C10_13 
REMARK    3  A    between atoms: C10_13  and  C11_14 
REMARK    4  A    between atoms: C19_24  and  O6_27 
REMARK    5  A    between atoms: O6_27  and  C22_28 
ROOT
HETATM    1  C11 UNL     1       1.628  -1.267   0.121  1.00  0.00     0.051 C 
HETATM    2  C12 UNL     1       0.763  -1.383  -1.178  1.00  0.00     0.009 C 
HETATM    3  C13 UNL     1      -0.617  -2.011  -0.830  1.00  0.00     0.036 C 
HETATM    4  C14 UNL     1      -0.517  -3.372  -0.118  1.00  0.00     0.186 C 
HETATM    5  C15 UNL     1       0.787  -3.700   0.596  1.00  0.00     0.201 C 
HETATM    6  C16 UNL     1       1.735  -2.571   0.883  1.00  0.00    -0.010 C 
HETATM    7  C17 UNL     1       2.719  -2.766   1.779  1.00  0.00    -0.006 C 
HETATM    8  O4  UNL     1       1.502  -4.700  -0.111  1.00  0.00    -0.216 OA
HETATM    9  O5  UNL     1      -1.547  -3.474   0.844  1.00  0.00    -0.220 OA
HETATM   10  C18 UNL     1      -1.706  -1.942  -1.955  1.00  0.00     0.028 C 
HETATM   11  C19 UNL     1      -1.839  -0.489  -2.474  1.00  0.00     0.124 C 
HETATM   12  C20 UNL     1      -0.491   0.080  -2.925  1.00  0.00     0.030 C 
HETATM   13  C21 UNL     1       0.536   0.023  -1.788  1.00  0.00     0.003 C 
HETATM   14  C24 UNL     1      -3.093  -2.389  -1.420  1.00  0.00     0.003 C 
HETATM   15  C25 UNL     1      -1.440  -2.876  -3.163  1.00  0.00     0.003 C 
HETATM   16  C26 UNL     1       1.559  -2.230  -2.206  1.00  0.00     0.001 C 
ENDROOT
BRANCH   1  17
HETATM   17  C10 UNL     1       1.305  -0.113   1.095  1.00  0.00     0.153 C 
BRANCH  17  18
HETATM   18  O3  UNL     1       1.924   1.063   0.634  1.00  0.00    -0.330 OA
BRANCH  18  19
HETATM   19  C2  UNL     1       1.898   2.122   1.499  1.00  0.00     0.096 C 
HETATM   20  C1  UNL     1       3.026   2.441   2.267  1.00  0.00     0.024 C 
HETATM   21  C6  UNL     1       3.074   3.598   3.040  1.00  0.00     0.004 C 
HETATM   22  C5  UNL     1       2.018   4.519   2.993  1.00  0.00     0.023 A 
HETATM   23  C4  UNL     1       0.907   4.290   2.163  1.00  0.00     0.105 A 
HETATM   24  C7  UNL     1       2.088   5.760   3.762  1.00  0.00     0.007 A 
HETATM   25  C3  UNL     1       0.906   3.108   1.411  1.00  0.00     0.049 C 
HETATM   26  O1  UNL     1      -0.127   5.177   2.032  1.00  0.00    -0.273 OA
HETATM   27  C9  UNL     1      -0.056   6.334   2.751  1.00  0.00     0.300 A 
HETATM   28  C8  UNL     1       1.080   6.650   3.646  1.00  0.00     0.069 A 
HETATM   29  O2  UNL     1      -0.959   7.163   2.666  1.00  0.00    -0.259 OA
ENDBRANCH  18  19
ENDBRANCH  17  18
ENDBRANCH   1  17
BRANCH  11  30
HETATM   30  O6  UNL     1      -2.352   0.347  -1.470  1.00  0.00    -0.304 OA
BRANCH  30  31
HETATM   31  C22 UNL     1      -3.637   0.785  -1.549  1.00  0.00     0.272 C 
HETATM   32  C23 UNL     1      -4.003   1.589  -0.317  1.00  0.00     0.106 C 
HETATM   33  O7  UNL     1      -4.407   0.555  -2.454  1.00  0.00    -0.264 OA
ENDBRANCH  30  31
ENDBRANCH  11  30
TORSDOF 5
