REMARK  4 active torsions:
REMARK  status: ('A' for Active; 'I' for Inactive)
REMARK    1  A    between atoms: C5_7  and  C8_10 
REMARK    2  A    between atoms: C8_10  and  O2_11 
REMARK    3  A    between atoms: O2_11  and  C9_12 
REMARK    4  A    between atoms: C9_12  and  C10_14 
ROOT
HETATM    1  O2  UNL     1       0.190   0.140   0.584  1.00  0.00    -0.297 OA
ENDROOT
BRANCH   1   2
HETATM    2  C8  UNL     1       0.448  -0.761  -0.462  1.00  0.00     0.176 C 
BRANCH   2   3
HETATM    3  C5  UNL     1      -0.406  -1.990  -0.314  1.00  0.00     0.017 C 
HETATM    4  C3  UNL     1      -1.653  -2.059   0.521  1.00  0.00     0.270 C 
HETATM    5  N1  UNL     1      -2.046  -3.470   0.536  1.00  0.00     0.146 N 
HETATM    6  C4  UNL     1      -2.812  -1.269  -0.095  1.00  0.00     0.189 C 
HETATM    7  C2  UNL     1      -3.483  -3.497   0.341  1.00  0.00     0.254 C 
HETATM    8  C7  UNL     1      -1.284  -4.132  -0.520  1.00  0.00     0.276 C 
HETATM    9  C1  UNL     1      -3.784  -2.330  -0.605  1.00  0.00     0.071 C 
HETATM   10  C6  UNL     1      -0.199  -3.171  -0.905  1.00  0.00     0.005 C 
HETATM   11  O1  UNL     1      -3.441  -0.501   0.904  1.00  0.00    -0.221 OA
ENDBRANCH   2   3
ENDBRANCH   1   2
BRANCH   1  12
HETATM   12  C9  UNL     1       0.708   1.389   0.738  1.00  0.00     0.274 C 
HETATM   13  O3  UNL     1       0.225   2.125   1.576  1.00  0.00    -0.264 OA
BRANCH  12  14
HETATM   14  C10 UNL     1       1.953   1.904  -0.016  1.00  0.00     0.112 C 
HETATM   15  C11 UNL     1       1.635   3.322  -0.547  1.00  0.00     0.098 C 
HETATM   16  C12 UNL     1       1.881   4.219   0.652  1.00  0.00     0.272 C 
HETATM   17  C15 UNL     1       0.269   3.496  -1.222  1.00  0.00     0.011 C 
HETATM   18  O4  UNL     1       2.722   3.572   1.501  1.00  0.00    -0.304 OA
HETATM   19  O5  UNL     1       1.450   5.339   0.812  1.00  0.00    -0.264 OA
HETATM   20  C13 UNL     1       3.020   2.284   1.036  1.00  0.00     0.134 C 
HETATM   21  C14 UNL     1       3.175   1.310   2.203  1.00  0.00     0.033 C 
HETATM   22  C16 UNL     1       2.612   1.081  -1.135  1.00  0.00     0.013 C 
ENDBRANCH  12  14
ENDBRANCH   1  12
TORSDOF 4
