REMARK  2 active torsions:
REMARK  status: ('A' for Active; 'I' for Inactive)
REMARK    1  A    between atoms: C6_6  and  C7_7 
REMARK    2  A    between atoms: C7_7  and  C8_8 
ROOT
HETATM    1  C1  UNL     1       0.615  -0.125   0.341  1.00  0.00     0.094 A 
HETATM    2  C2  UNL     1      -0.277   0.953   0.242  1.00  0.00     0.040 A 
HETATM    3  C3  UNL     1      -1.667   0.740   0.156  1.00  0.00     0.088 A 
HETATM    4  C4  UNL     1      -2.177  -0.566   0.131  1.00  0.00     0.082 A 
HETATM    5  C5  UNL     1      -1.293  -1.664   0.204  1.00  0.00     0.134 A 
HETATM    6  C6  UNL     1       0.088  -1.437   0.315  1.00  0.00     0.030 A 
HETATM    7  O1  UNL     1      -1.764  -2.940   0.132  1.00  0.00    -0.190 OA
HETATM    8  C12 UNL     1      -3.645  -0.773   0.017  1.00  0.00     0.201 A 
HETATM    9  C13 UNL     1      -4.506   0.428  -0.075  1.00  0.00     0.059 A 
HETATM   10  C14 UNL     1      -3.928   1.705  -0.046  1.00  0.00     0.110 A 
HETATM   11  N1  UNL     1      -2.550   1.814   0.067  1.00  0.00    -0.243 NA
HETATM   12  C15 UNL     1      -4.707   2.876  -0.136  1.00  0.00     0.149 A 
HETATM   13  C16 UNL     1      -6.088   2.727  -0.254  1.00  0.00     0.029 A 
HETATM   14  C17 UNL     1      -6.683   1.459  -0.284  1.00  0.00     0.002 A 
HETATM   15  C18 UNL     1      -5.902   0.310  -0.195  1.00  0.00     0.005 A 
HETATM   16  O2  UNL     1      -4.138   4.110  -0.110  1.00  0.00    -0.189 OA
HETATM   17  O3  UNL     1      -4.162  -1.890  -0.001  1.00  0.00    -0.286 OA
HETATM   18  C19 UNL     1       0.286   2.305   0.302  1.00  0.00     0.001 C 
HETATM   19  C20 UNL     1       1.612   2.446   0.135  1.00  0.00     0.001 C 
HETATM   20  C21 UNL     1       2.475   1.253  -0.190  1.00  0.00     0.117 C 
HETATM   21  O4  UNL     1       1.969   0.079   0.385  1.00  0.00    -0.332 OA
HETATM   22  C22 UNL     1       3.889   1.458   0.366  1.00  0.00     0.035 C 
HETATM   23  C23 UNL     1       2.535   1.072  -1.711  1.00  0.00     0.035 C 
ENDROOT
BRANCH   6  24
HETATM   24  C7  UNL     1       1.003  -2.653   0.371  1.00  0.00     0.056 C 
BRANCH  24  25
HETATM   25  C8  UNL     1       2.357  -2.456   1.006  1.00  0.00    -0.030 C 
HETATM   26  C9  UNL     1       3.565  -2.675   0.454  1.00  0.00    -0.048 C 
HETATM   27  C10 UNL     1       4.832  -2.401   1.232  1.00  0.00     0.026 C 
HETATM   28  C11 UNL     1       3.810  -3.188  -0.945  1.00  0.00     0.026 C 
ENDBRANCH  24  25
ENDBRANCH   6  24
TORSDOF 2
