REMARK  1 active torsions:
REMARK  status: ('A' for Active; 'I' for Inactive)
REMARK    1  A    between atoms: C6_6  and  O1_7 
ROOT
HETATM    1  C1  UNL     1       1.874   0.916  -0.109  1.00  0.00     0.141 A 
HETATM    2  C2  UNL     1       0.483   1.183  -0.001  1.00  0.00     0.121 A 
HETATM    3  C3  UNL     1      -0.480   0.194   0.068  1.00  0.00     0.026 A 
HETATM    4  C4  UNL     1       0.037  -1.148   0.092  1.00  0.00     0.025 A 
HETATM    5  C5  UNL     1       1.428  -1.396  -0.008  1.00  0.00     0.028 A 
HETATM    6  C6  UNL     1       2.412  -0.353  -0.127  1.00  0.00     0.118 A 
HETATM    7  C8  UNL     1       1.861  -2.752   0.015  1.00  0.00     0.023 A 
HETATM    8  C9  UNL     1       0.921  -3.750   0.148  1.00  0.00     0.099 A 
HETATM    9  N1  UNL     1      -0.404  -3.513   0.260  1.00  0.00    -0.241 NA
HETATM   10  C10 UNL     1      -0.839  -2.264   0.235  1.00  0.00     0.120 A 
HETATM   11  C11 UNL     1      -2.309  -2.048   0.371  1.00  0.00     0.213 A 
HETATM   12  C12 UNL     1      -2.817  -0.659   0.282  1.00  0.00     0.041 A 
HETATM   13  C13 UNL     1      -1.933   0.429   0.124  1.00  0.00     0.005 A 
HETATM   14  C14 UNL     1      -2.518   1.702  -0.002  1.00  0.00     0.000 A 
HETATM   15  C15 UNL     1      -3.898   1.902   0.078  1.00  0.00     0.000 A 
HETATM   16  C16 UNL     1      -4.751   0.817   0.264  1.00  0.00     0.000 A 
HETATM   17  C17 UNL     1      -4.205  -0.463   0.354  1.00  0.00     0.003 A 
HETATM   18  O2  UNL     1      -3.074  -2.995   0.532  1.00  0.00    -0.285 OA
HETATM   19  O3  UNL     1       0.310   2.559   0.004  1.00  0.00    -0.299 OA
HETATM   20  C18 UNL     1       1.580   3.178  -0.198  1.00  0.00     0.304 A 
HETATM   21  O4  UNL     1       2.538   2.123  -0.205  1.00  0.00    -0.298 OA
ENDROOT
BRANCH   6  22
HETATM   22  O1  UNL     1       3.741  -0.680  -0.220  1.00  0.00    -0.326 OA
HETATM   23  C7  UNL     1       4.709   0.336  -0.307  1.00  0.00     0.181 C 
ENDBRANCH   6  22
TORSDOF 1
