REMARK  2 active torsions:
REMARK  status: ('A' for Active; 'I' for Inactive)
REMARK    1  A    between atoms: C11_13  and  C21_26 
REMARK    2  A    between atoms: C12_14  and  O5_24 
ROOT
HETATM    1  C1  UNL     1      -4.220  -0.236  -0.202  1.00  0.00     0.229 C 
HETATM    2  C2  UNL     1      -3.616  -1.151   0.841  1.00  0.00     0.150 C 
HETATM    3  C3  UNL     1      -4.068  -2.591   0.708  1.00  0.00     0.281 C 
HETATM    4  O1  UNL     1      -2.851  -3.543   0.669  1.00  0.00    -0.281 OA
HETATM    5  C4  UNL     1      -1.732  -2.716   0.643  1.00  0.00     0.076 C 
HETATM    6  C5  UNL     1      -2.122  -1.262   0.447  1.00  0.00     0.090 C 
HETATM    7  C6  UNL     1      -2.146  -0.710  -0.991  1.00  0.00     0.143 C 
HETATM    8  O2  UNL     1      -3.500  -0.537  -1.359  1.00  0.00    -0.330 OA
HETATM    9  C7  UNL     1      -1.386  -1.439  -2.084  1.00  0.00    -0.017 C 
HETATM   10  C8  UNL     1      -0.136  -1.177  -2.518  1.00  0.00    -0.010 C 
HETATM   11  C9  UNL     1       0.944  -0.265  -1.977  1.00  0.00    -0.022 C 
HETATM   12  C10 UNL     1       0.697   1.220  -1.706  1.00  0.00     0.050 C 
HETATM   13  C11 UNL     1       1.680   2.055  -0.888  1.00  0.00    -0.013 C 
HETATM   14  C12 UNL     1       2.824   1.658  -0.290  1.00  0.00     0.149 C 
HETATM   15  C13 UNL     1       3.337   0.220  -0.385  1.00  0.00     0.318 C 
HETATM   16  O3  UNL     1       3.179  -0.800   0.515  1.00  0.00    -0.299 OA
HETATM   17  C14 UNL     1       2.453  -0.754   1.713  1.00  0.00     0.125 C 
HETATM   18  C15 UNL     1       0.989  -1.182   1.506  1.00  0.00     0.035 C 
HETATM   19  C16 UNL     1       0.845  -2.590   0.902  1.00  0.00     0.026 C 
HETATM   20  C17 UNL     1      -0.512  -3.268   0.826  1.00  0.00    -0.025 C 
HETATM   21  C18 UNL     1      -0.385  -4.777   0.944  1.00  0.00     0.028 C 
HETATM   22  C19 UNL     1       2.556   0.546   2.505  1.00  0.00     0.033 C 
HETATM   23  O4  UNL     1       3.994   0.008  -1.398  1.00  0.00    -0.257 OA
HETATM   24  C24 UNL     1      -2.177  -2.546  -2.755  1.00  0.00     0.029 C 
HETATM   25  O6  UNL     1      -5.217  -2.957   0.506  1.00  0.00    -0.264 OA
HETATM   26  C25 UNL     1      -4.166   1.243   0.134  1.00  0.00     0.065 C 
HETATM   27  O7  UNL     1      -5.556  -0.599  -0.476  1.00  0.00    -0.195 OA
ENDROOT
BRANCH  13  28
HETATM   28  C21 UNL     1       1.171   3.493  -0.729  1.00  0.00     0.021 C 
HETATM   29  C22 UNL     1       0.682   3.746   0.707  1.00  0.00     0.004 C 
HETATM   30  C23 UNL     1       2.149   4.580  -1.206  1.00  0.00     0.004 C 
ENDBRANCH  13  28
BRANCH  14  31
HETATM   31  O5  UNL     1       3.610   2.497   0.457  1.00  0.00    -0.323 OA
HETATM   32  C20 UNL     1       4.933   2.657  -0.004  1.00  0.00     0.182 C 
ENDBRANCH  14  31
TORSDOF 2
