REMARK  3 active torsions:
REMARK  status: ('A' for Active; 'I' for Inactive)
REMARK    1  A    between atoms: C5_6  and  O2_7 
REMARK    2  A    between atoms: O2_7  and  C6_8 
REMARK    3  A    between atoms: C19_23  and  C20_24 
ROOT
HETATM    1  C1  UNL     1      -3.283  -2.038   0.126  1.00  0.00     0.136 C 
HETATM    2  C2  UNL     1      -3.357  -3.514   0.441  1.00  0.00     0.279 C 
HETATM    3  O1  UNL     1      -1.935  -4.119   0.472  1.00  0.00    -0.279 OA
HETATM    4  C3  UNL     1      -1.052  -3.051   0.315  1.00  0.00     0.103 C 
HETATM    5  C4  UNL     1      -1.773  -1.745  -0.042  1.00  0.00     0.204 C 
HETATM    6  C5  UNL     1      -1.400  -1.184  -1.421  1.00  0.00     0.177 C 
HETATM    7  C8  UNL     1      -1.640   0.319  -1.486  1.00  0.00    -0.014 C 
HETATM    8  C9  UNL     1      -0.777   1.268  -1.060  1.00  0.00    -0.010 C 
HETATM    9  C10 UNL     1       0.633   1.191  -0.494  1.00  0.00    -0.021 C 
HETATM   10  C11 UNL     1       0.970   1.276   1.032  1.00  0.00     0.066 C 
HETATM   11  C12 UNL     1       2.062   0.172   1.388  1.00  0.00     0.109 C 
HETATM   12  C13 UNL     1       1.478  -1.257   1.597  1.00  0.00     0.033 C 
HETATM   13  C14 UNL     1       1.353  -2.203   0.396  1.00  0.00     0.026 C 
HETATM   14  C15 UNL     1       0.266  -3.250   0.537  1.00  0.00    -0.023 C 
HETATM   15  C16 UNL     1       0.791  -4.598   0.983  1.00  0.00     0.028 C 
HETATM   16  O4  UNL     1       2.722   0.372   2.604  1.00  0.00    -0.303 OA
HETATM   17  C17 UNL     1       2.962   1.611   3.054  1.00  0.00     0.295 C 
HETATM   18  C18 UNL     1       2.291   2.791   2.491  1.00  0.00     0.060 C 
HETATM   19  C19 UNL     1       1.321   2.689   1.559  1.00  0.00    -0.033 C 
HETATM   20  O5  UNL     1       3.708   1.782   4.016  1.00  0.00    -0.259 OA
HETATM   21  C23 UNL     1       3.225   0.158   0.369  1.00  0.00     0.031 C 
HETATM   22  C24 UNL     1      -2.970   0.749  -2.078  1.00  0.00     0.029 C 
HETATM   23  O6  UNL     1      -1.462  -0.769   0.922  1.00  0.00    -0.216 OA
HETATM   24  O7  UNL     1      -4.374  -4.149   0.673  1.00  0.00    -0.264 OA
ENDROOT
BRANCH   6  25
HETATM   25  O2  UNL     1      -2.086  -1.919  -2.408  1.00  0.00    -0.297 OA
BRANCH  25  26
HETATM   26  C6  UNL     1      -1.669  -2.023  -3.702  1.00  0.00     0.273 C 
HETATM   27  O3  UNL     1      -2.311  -2.629  -4.534  1.00  0.00    -0.264 OA
HETATM   28  C7  UNL     1      -0.351  -1.357  -4.055  1.00  0.00     0.106 C 
ENDBRANCH  25  26
ENDBRANCH   6  25
BRANCH  19  29
HETATM   29  C20 UNL     1       0.437   3.946   1.428  1.00  0.00     0.019 C 
HETATM   30  C21 UNL     1       1.083   5.284   1.868  1.00  0.00     0.004 C 
HETATM   31  C22 UNL     1      -0.250   4.231   0.088  1.00  0.00     0.004 C 
ENDBRANCH  19  29
TORSDOF 3
