REMARK  4 active torsions:
REMARK  status: ('A' for Active; 'I' for Inactive)
REMARK    1  A    between atoms: C9_9  and  C11_11 
REMARK    2  A    between atoms: C11_11  and  O1_14 
REMARK    3  A    between atoms: O1_14  and  C14_15 
REMARK    4  A    between atoms: C15_17  and  C19_24 
ROOT
HETATM    1  C11 UNL     1       1.242   1.193  -0.473  1.00  0.00     0.096 C 
HETATM    2  C12 UNL     1       1.028   2.490   0.327  1.00  0.00     0.030 C 
HETATM    3  C13 UNL     1       2.423   1.414  -1.434  1.00  0.00     0.030 C 
ENDROOT
BRANCH   1   4
HETATM    4  C9  UNL     1       1.548   0.022   0.510  1.00  0.00     0.025 C 
HETATM    5  C8  UNL     1       2.105  -1.239  -0.178  1.00  0.00     0.002 C 
HETATM    6  C7  UNL     1       2.426  -2.338   0.845  1.00  0.00     0.001 C 
HETATM    7  C5  UNL     1       1.214  -2.772   1.700  1.00  0.00     0.006 C 
HETATM    8  C4  UNL     1       0.601  -1.519   2.366  1.00  0.00     0.018 C 
HETATM    9  C6  UNL     1       1.700  -3.770   2.789  1.00  0.00     0.034 C 
HETATM   10  C20 UNL     1       0.188  -3.486   0.786  1.00  0.00     0.000 C 
HETATM   11  C3  UNL     1      -0.592  -1.934   3.213  1.00  0.00    -0.042 C 
HETATM   12  C10 UNL     1       0.325  -0.381   1.365  1.00  0.00     0.006 C 
HETATM   13  C2  UNL     1      -0.419  -3.172   4.063  1.00  0.00     0.055 C 
HETATM   14  C21 UNL     1      -1.772  -1.292   3.228  1.00  0.00    -0.009 C 
HETATM   15  C1  UNL     1       1.031  -3.629   4.159  1.00  0.00     0.156 C 
HETATM   16  O7  UNL     1       1.753  -2.723   4.963  1.00  0.00    -0.223 OA
ENDBRANCH   1   4
BRANCH   1  17
HETATM   17  O1  UNL     1       0.094   0.804  -1.173  1.00  0.00    -0.334 OA
BRANCH  17  18
HETATM   18  C14 UNL     1      -0.467   1.691  -2.114  1.00  0.00     0.270 C 
HETATM   19  O2  UNL     1      -1.251   2.618  -1.396  1.00  0.00    -0.326 OA
HETATM   20  C15 UNL     1      -1.898   3.542  -2.230  1.00  0.00     0.184 C 
HETATM   21  C16 UNL     1      -2.877   2.805  -3.135  1.00  0.00     0.215 C 
HETATM   22  C17 UNL     1      -2.137   1.761  -3.945  1.00  0.00     0.220 C 
HETATM   23  O5  UNL     1      -3.504   3.686  -4.034  1.00  0.00    -0.218 OA
HETATM   24  C18 UNL     1      -1.378   0.862  -2.995  1.00  0.00     0.241 C 
HETATM   25  O4  UNL     1      -3.058   1.000  -4.683  1.00  0.00    -0.218 OA
HETATM   26  O3  UNL     1      -0.609  -0.053  -3.733  1.00  0.00    -0.215 OA
BRANCH  20  27
HETATM   27  C19 UNL     1      -2.592   4.574  -1.353  1.00  0.00     0.214 C 
HETATM   28  O6  UNL     1      -1.625   5.311  -0.632  1.00  0.00    -0.218 OA
ENDBRANCH  20  27
ENDBRANCH  17  18
ENDBRANCH   1  17
TORSDOF 4
