REMARK  0 active torsions:
REMARK  status: ('A' for Active; 'I' for Inactive)
ROOT
HETATM    1  C1  UNL     1       2.438   2.571  -2.298  1.00  0.00     0.055 A 
HETATM    2  C2  UNL     1       3.450   1.948  -1.522  1.00  0.00     0.133 A 
HETATM    3  C3  UNL     1       3.055   0.960  -0.654  1.00  0.00     0.028 A 
HETATM    4  C4  UNL     1       1.689   0.557  -0.563  1.00  0.00     0.006 A 
HETATM    5  C5  UNL     1       0.699   1.154  -1.367  1.00  0.00     0.051 A 
HETATM    6  C6  UNL     1       1.107   2.219  -2.245  1.00  0.00     0.135 A 
HETATM    7  O1  UNL     1       0.247   2.921  -3.028  1.00  0.00    -0.190 OA
HETATM    8  C7  UNL     1      -0.658   0.691  -1.256  1.00  0.00     0.135 A 
HETATM    9  C8  UNL     1      -0.959  -0.323  -0.351  1.00  0.00     0.056 A 
HETATM   10  C9  UNL     1       0.045  -0.912   0.477  1.00  0.00    -0.015 A 
HETATM   11  C10 UNL     1       1.340  -0.472   0.358  1.00  0.00    -0.004 A 
HETATM   12  C11 UNL     1      -0.264  -2.012   1.465  1.00  0.00     0.057 C 
HETATM   13  C12 UNL     1      -1.708  -1.960   1.954  1.00  0.00     0.138 C 
HETATM   14  C13 UNL     1      -2.631  -1.965   0.740  1.00  0.00     0.100 C 
HETATM   15  C14 UNL     1      -2.355  -0.830  -0.232  1.00  0.00     0.177 C 
HETATM   16  O2  UNL     1      -3.309  -0.395  -0.869  1.00  0.00    -0.291 OA
HETATM   17  O3  UNL     1      -1.961  -3.122   2.703  1.00  0.00    -0.225 OA
HETATM   18  C15 UNL     1      -1.960  -0.756   2.864  1.00  0.00     0.034 C 
HETATM   19  O4  UNL     1      -1.634   1.177  -2.071  1.00  0.00    -0.190 OA
HETATM   20  O5  UNL     1       4.750   2.331  -1.610  1.00  0.00    -0.190 OA
ENDROOT
TORSDOF 0
