REMARK  7 active torsions:
REMARK  status: ('A' for Active; 'I' for Inactive)
REMARK    1  A    between atoms: C1_1  and  C16_19 
REMARK    2  A    between atoms: C3_4  and  C6_8 
REMARK    3  A    between atoms: C6_8  and  C7_9 
REMARK    4  A    between atoms: C8_10  and  C9_11 
REMARK    5  A    between atoms: C9_11  and  C10_12 
REMARK    6  A    between atoms: C10_12  and  C11_13 
REMARK    7  A    between atoms: C16_19  and  C17_20 
ROOT
HETATM    1  C1  UNL     1      -2.415   2.897  -0.400  1.00  0.00     0.086 A 
HETATM    2  O1  UNL     1      -1.479   3.777  -0.850  1.00  0.00    -0.277 OA
HETATM    3  C2  UNL     1      -0.179   3.375  -0.782  1.00  0.00     0.298 A 
HETATM    4  C3  UNL     1       0.243   2.053  -0.243  1.00  0.00     0.071 A 
HETATM    5  C4  UNL     1      -0.731   1.236   0.236  1.00  0.00     0.134 A 
HETATM    6  C5  UNL     1      -2.111   1.694   0.132  1.00  0.00     0.048 A 
HETATM    7  O2  UNL     1      -0.476   0.036   0.821  1.00  0.00    -0.190 OA
HETATM    8  O3  UNL     1       0.696   4.145  -1.173  1.00  0.00    -0.259 OA
ENDROOT
BRANCH   4   9
HETATM    9  C6  UNL     1       1.720   1.714  -0.189  1.00  0.00     0.059 C 
BRANCH   9  10
HETATM   10  C7  UNL     1       2.040   0.256  -0.403  1.00  0.00    -0.030 C 
HETATM   11  C8  UNL     1       3.110  -0.402   0.079  1.00  0.00    -0.048 C 
HETATM   12  C15 UNL     1       4.214   0.271   0.865  1.00  0.00     0.026 C 
BRANCH  11  13
HETATM   13  C9  UNL     1       3.338  -1.887  -0.137  1.00  0.00     0.026 C 
BRANCH  13  14
HETATM   14  C10 UNL     1       2.117  -2.714  -0.573  1.00  0.00     0.030 C 
BRANCH  14  15
HETATM   15  C11 UNL     1       2.412  -4.195  -0.580  1.00  0.00    -0.034 C 
HETATM   16  C12 UNL     1       1.512  -5.184  -0.429  1.00  0.00    -0.048 C 
HETATM   17  C13 UNL     1       1.936  -6.635  -0.425  1.00  0.00     0.026 C 
HETATM   18  C14 UNL     1       0.028  -4.967  -0.254  1.00  0.00     0.026 C 
ENDBRANCH  14  15
ENDBRANCH  13  14
ENDBRANCH  11  13
ENDBRANCH   9  10
ENDBRANCH   4   9
BRANCH   1  19
HETATM   19  C16 UNL     1      -3.854   3.353  -0.509  1.00  0.00     0.085 C 
BRANCH  19  20
HETATM   20  C17 UNL     1      -4.209   4.345   0.598  1.00  0.00     0.159 C 
HETATM   21  C18 UNL     1      -5.628   4.886   0.450  1.00  0.00     0.036 C 
HETATM   22  O4  UNL     1      -4.095   3.697   1.843  1.00  0.00    -0.223 OA
ENDBRANCH  19  20
ENDBRANCH   1  19
TORSDOF 7
