REMARK  6 active torsions:
REMARK  status: ('A' for Active; 'I' for Inactive)
REMARK    1  A    between atoms: C5_5  and  C9_9 
REMARK    2  A    between atoms: C10_10  and  C11_11 
REMARK    3  A    between atoms: C11_11  and  C12_12 
REMARK    4  A    between atoms: C12_12  and  O1_13 
REMARK    5  A    between atoms: O1_13  and  C13_14 
REMARK    6  A    between atoms: C14_16  and  C18_23 
ROOT
HETATM    1  C11 UNL     1      -1.724  -1.179  -0.805  1.00  0.00     0.203 C 
HETATM    2  O7  UNL     1      -2.749  -1.842  -0.686  1.00  0.00    -0.289 OA
ENDROOT
BRANCH   1   3
HETATM    3  C10 UNL     1      -0.820  -0.890   0.336  1.00  0.00     0.038 C 
HETATM    4  C9  UNL     1      -1.101  -1.281   1.597  1.00  0.00     0.006 C 
BRANCH   4   5
HETATM    5  C5  UNL     1      -0.241  -1.027   2.824  1.00  0.00     0.146 C 
HETATM    6  C4  UNL     1      -1.030  -0.257   3.912  1.00  0.00     0.039 C 
HETATM    7  C3  UNL     1      -0.163  -0.029   5.165  1.00  0.00     0.067 C 
HETATM    8  C19 UNL     1      -2.413  -0.792   4.330  1.00  0.00     0.003 C 
HETATM    9  C2  UNL     1       0.467  -1.327   5.627  1.00  0.00     0.151 C 
HETATM   10  C1  UNL     1       1.284  -2.055   4.577  1.00  0.00     0.067 C 
HETATM   11  O9  UNL     1       0.363  -1.733   6.763  1.00  0.00    -0.296 OA
HETATM   12  C6  UNL     1       0.461  -2.331   3.297  1.00  0.00     0.036 C 
HETATM   13  C7  UNL     1      -0.509  -3.499   3.593  1.00  0.00     0.003 C 
HETATM   14  C8  UNL     1       1.430  -2.854   2.206  1.00  0.00     0.003 C 
HETATM   15  O8  UNL     1       0.795  -0.133   2.452  1.00  0.00    -0.222 OA
ENDBRANCH   4   5
ENDBRANCH   1   3
BRANCH   1  16
HETATM   16  C12 UNL     1      -1.323  -0.601  -2.159  1.00  0.00     0.213 C 
BRANCH  16  17
HETATM   17  O1  UNL     1      -0.934   0.753  -2.024  1.00  0.00    -0.321 OA
BRANCH  17  18
HETATM   18  C13 UNL     1      -0.592   1.381  -3.239  1.00  0.00     0.270 C 
HETATM   19  O2  UNL     1       0.641   0.822  -3.639  1.00  0.00    -0.326 OA
HETATM   20  C14 UNL     1       1.139   1.397  -4.819  1.00  0.00     0.184 C 
HETATM   21  C15 UNL     1       1.392   2.883  -4.591  1.00  0.00     0.215 C 
HETATM   22  C16 UNL     1       0.104   3.561  -4.173  1.00  0.00     0.220 C 
HETATM   23  O5  UNL     1       1.844   3.514  -5.763  1.00  0.00    -0.218 OA
HETATM   24  C17 UNL     1      -0.427   2.856  -2.947  1.00  0.00     0.241 C 
HETATM   25  O4  UNL     1       0.360   4.909  -3.873  1.00  0.00    -0.218 OA
HETATM   26  O3  UNL     1      -1.671   3.412  -2.604  1.00  0.00    -0.215 OA
BRANCH  20  27
HETATM   27  C18 UNL     1       2.412   0.665  -5.220  1.00  0.00     0.214 C 
HETATM   28  O6  UNL     1       2.106  -0.670  -5.570  1.00  0.00    -0.218 OA
ENDBRANCH  20  27
ENDBRANCH  17  18
ENDBRANCH  16  17
ENDBRANCH   1  16
TORSDOF 6
