REMARK  9 active torsions:
REMARK  status: ('A' for Active; 'I' for Inactive)
REMARK    1  A    between atoms: C1_1  and  C14_14 
REMARK    2  A    between atoms: C3_3  and  C10_10 
REMARK    3  A    between atoms: C5_5  and  C6_6 
REMARK    4  A    between atoms: C6_6  and  C7_7 
REMARK    5  A    between atoms: C10_10  and  C11_11 
REMARK    6  A    between atoms: C14_14  and  C15_15 
REMARK    7  A    between atoms: C15_15  and  C16_16 
REMARK    8  A    between atoms: C16_16  and  C17_17 
REMARK    9  A    between atoms: C17_17  and  C18_18 
ROOT
HETATM    1  C1  UNL     1      -0.832   0.016   0.093  1.00  0.00    -0.019 C 
HETATM    2  C2  UNL     1      -1.327   0.162   1.332  1.00  0.00    -0.033 C 
HETATM    3  C3  UNL     1      -0.283   0.116   2.414  1.00  0.00     0.022 C 
HETATM    4  C4  UNL     1       0.866  -0.527   1.613  1.00  0.00     0.008 C 
HETATM    5  C5  UNL     1       0.678  -0.152   0.120  1.00  0.00     0.021 C 
ENDROOT
BRANCH   1   6
HETATM    6  C14 UNL     1      -1.703   0.160  -1.128  1.00  0.00     0.178 C 
HETATM    7  O4  UNL     1      -1.719  -1.026  -1.901  1.00  0.00    -0.218 OA
BRANCH   6   8
HETATM    8  C15 UNL     1      -1.349   1.366  -2.000  1.00  0.00     0.102 C 
BRANCH   8   9
HETATM    9  C16 UNL     1      -2.064   1.332  -3.342  1.00  0.00     0.164 C 
HETATM   10  O3  UNL     1      -2.991   0.574  -3.523  1.00  0.00    -0.295 OA
BRANCH   9  11
HETATM   11  C17 UNL     1      -1.568   2.256  -4.446  1.00  0.00     0.162 C 
BRANCH  11  12
HETATM   12  C18 UNL     1      -0.470   1.615  -5.277  1.00  0.00     0.193 C 
HETATM   13  O1  UNL     1       0.002   2.451  -6.218  1.00  0.00    -0.647 OA
HETATM   14  O2  UNL     1      -0.038   0.495  -5.146  1.00  0.00    -0.647 OA
ENDBRANCH  11  12
ENDBRANCH   9  11
ENDBRANCH   8   9
ENDBRANCH   6   8
ENDBRANCH   1   6
BRANCH   5  15
HETATM   15  C6  UNL     1       1.356  -1.177  -0.823  1.00  0.00     0.004 C 
HETATM   16  C9  UNL     1       2.733  -1.635  -0.291  1.00  0.00     0.000 C 
BRANCH  15  17
HETATM   17  C7  UNL     1       1.547  -0.718  -2.287  1.00  0.00     0.000 C 
HETATM   18  C8  UNL     1       2.459   0.500  -2.500  1.00  0.00     0.000 C 
ENDBRANCH  15  17
ENDBRANCH   5  15
BRANCH   3  19
HETATM   19  C10 UNL     1      -0.689  -0.662   3.686  1.00  0.00     0.004 C 
HETATM   20  C13 UNL     1      -1.883   0.007   4.391  1.00  0.00     0.000 C 
BRANCH  19  21
HETATM   21  C11 UNL     1       0.510  -0.798   4.649  1.00  0.00     0.000 C 
HETATM   22  C12 UNL     1       0.248  -1.695   5.867  1.00  0.00     0.000 C 
ENDBRANCH  19  21
ENDBRANCH   3  19
TORSDOF 9
