REMARK  4 active torsions:
REMARK  status: ('A' for Active; 'I' for Inactive)
REMARK    1  A    between atoms: C15_15  and  C18_18 
REMARK    2  A    between atoms: C18_18  and  C20_20 
REMARK    3  A    between atoms: C21_21  and  C22_22 
REMARK    4  A    between atoms: C22_22  and  C23_23 
ROOT
HETATM    1  C1  UNL     1      -5.041   1.029  -3.427  1.00  0.00     0.033 C 
HETATM    2  C2  UNL     1      -5.884  -0.210  -3.146  1.00  0.00     0.155 C 
HETATM    3  C3  UNL     1      -5.138  -1.293  -2.362  1.00  0.00     0.063 C 
HETATM    4  C4  UNL     1      -3.706  -0.931  -1.940  1.00  0.00     0.129 C 
HETATM    5  C5  UNL     1      -3.615   0.481  -1.310  1.00  0.00     0.028 C 
HETATM    6  C6  UNL     1      -4.392   1.549  -2.139  1.00  0.00     0.005 C 
HETATM    7  C7  UNL     1      -2.088   0.800  -1.308  1.00  0.00     0.030 C 
HETATM    8  C8  UNL     1      -1.275  -0.504  -1.465  1.00  0.00     0.127 C 
HETATM    9  C9  UNL     1      -1.771  -1.593  -0.514  1.00  0.00     0.033 C 
HETATM   10  C10 UNL     1      -3.154  -2.030  -1.018  1.00  0.00     0.033 C 
HETATM   11  C11 UNL     1       0.217  -0.156  -1.397  1.00  0.00     0.028 C 
HETATM   12  C12 UNL     1       0.731   0.686  -0.208  1.00  0.00     0.003 C 
HETATM   13  C13 UNL     1      -0.087   1.992  -0.196  1.00  0.00     0.000 C 
HETATM   14  C14 UNL     1      -1.600   1.702  -0.155  1.00  0.00     0.003 C 
HETATM   15  C15 UNL     1       2.219   0.849  -0.636  1.00  0.00     0.004 C 
HETATM   16  C16 UNL     1       2.593  -0.552  -1.184  1.00  0.00     0.000 C 
HETATM   17  C17 UNL     1       1.274  -1.248  -1.585  1.00  0.00     0.003 C 
HETATM   18  C27 UNL     1       0.663  -0.010   1.165  1.00  0.00     0.000 C 
HETATM   19  O1  UNL     1      -1.488  -1.036  -2.749  1.00  0.00    -0.226 OA
HETATM   20  O2  UNL     1      -2.919  -0.924  -3.102  1.00  0.00    -0.226 OA
HETATM   21  C28 UNL     1      -4.246   0.497   0.105  1.00  0.00     0.003 C 
HETATM   22  O3  UNL     1      -7.030   0.180  -2.420  1.00  0.00    -0.223 OA
ENDROOT
BRANCH  15  23
HETATM   23  C18 UNL     1       3.203   1.501   0.366  1.00  0.00     0.022 C 
HETATM   24  C19 UNL     1       4.075   2.573  -0.314  1.00  0.00     0.005 C 
BRANCH  23  25
HETATM   25  C20 UNL     1       4.116   0.495   1.031  1.00  0.00    -0.031 C 
HETATM   26  C21 UNL     1       3.951   0.013   2.271  1.00  0.00    -0.027 C 
BRANCH  26  27
HETATM   27  C22 UNL     1       4.795  -1.095   2.859  1.00  0.00     0.040 C 
HETATM   28  C26 UNL     1       3.939  -2.368   2.967  1.00  0.00     0.009 C 
BRANCH  27  29
HETATM   29  C23 UNL     1       5.393  -0.748   4.209  1.00  0.00    -0.040 C 
HETATM   30  C24 UNL     1       6.618  -1.183   4.549  1.00  0.00    -0.009 C 
HETATM   31  C25 UNL     1       4.553   0.034   5.190  1.00  0.00     0.027 C 
ENDBRANCH  27  29
ENDBRANCH  26  27
ENDBRANCH  23  25
ENDBRANCH  15  23
TORSDOF 4
