REMARK  7 active torsions:
REMARK  status: ('A' for Active; 'I' for Inactive)
REMARK    1  A    between atoms: C3_3  and  C8_8 
REMARK    2  A    between atoms: C8_8  and  C10_10 
REMARK    3  A    between atoms: C10_10  and  C11_11 
REMARK    4  A    between atoms: C11_11  and  C12_12 
REMARK    5  A    between atoms: C13_13  and  C14_14 
REMARK    6  A    between atoms: C14_14  and  C15_15 
REMARK    7  A    between atoms: C15_15  and  C16_16 
ROOT
HETATM    1  C10 UNL     1      -1.417   0.198  -0.201  1.00  0.00     0.004 C 
ENDROOT
BRANCH   1   2
HETATM    2  C8  UNL     1      -2.400   1.264  -0.748  1.00  0.00     0.001 C 
HETATM    3  C9  UNL     1      -3.651   1.314   0.155  1.00  0.00     0.000 C 
BRANCH   2   4
HETATM    4  C3  UNL     1      -2.787   1.048  -2.235  1.00  0.00     0.004 C 
HETATM    5  C2  UNL     1      -3.760   2.107  -2.791  1.00  0.00     0.004 C 
HETATM    6  C1  UNL     1      -3.155   3.517  -2.730  1.00  0.00     0.022 C 
HETATM    7  C6  UNL     1      -1.706   3.546  -3.156  1.00  0.00    -0.048 C 
HETATM    8  C5  UNL     1      -1.004   2.420  -3.365  1.00  0.00    -0.034 C 
HETATM    9  C7  UNL     1      -1.087   4.914  -3.303  1.00  0.00     0.026 C 
HETATM   10  C4  UNL     1      -1.584   1.040  -3.197  1.00  0.00     0.025 C 
ENDBRANCH   2   4
ENDBRANCH   1   2
BRANCH   1  11
HETATM   11  C11 UNL     1       0.038   0.696  -0.092  1.00  0.00     0.025 C 
BRANCH  11  12
HETATM   12  C12 UNL     1       0.931  -0.308   0.599  1.00  0.00    -0.034 C 
HETATM   13  C13 UNL     1       2.225  -0.575   0.343  1.00  0.00    -0.048 C 
HETATM   14  C20 UNL     1       3.030   0.104  -0.743  1.00  0.00     0.026 C 
BRANCH  13  15
HETATM   15  C14 UNL     1       3.039  -1.578   1.145  1.00  0.00     0.026 C 
BRANCH  15  16
HETATM   16  C15 UNL     1       2.320  -2.323   2.283  1.00  0.00     0.029 C 
BRANCH  16  17
HETATM   17  C16 UNL     1       3.235  -3.251   3.045  1.00  0.00    -0.034 C 
HETATM   18  C17 UNL     1       2.841  -4.146   3.969  1.00  0.00    -0.048 C 
HETATM   19  C18 UNL     1       3.838  -5.020   4.694  1.00  0.00     0.026 C 
HETATM   20  C19 UNL     1       1.402  -4.362   4.373  1.00  0.00     0.026 C 
ENDBRANCH  16  17
ENDBRANCH  15  16
ENDBRANCH  13  15
ENDBRANCH  11  12
ENDBRANCH   1  11
TORSDOF 7
