REMARK  1 active torsions:
REMARK  status: ('A' for Active; 'I' for Inactive)
REMARK    1  A    between atoms: C10_10  and  C11_11 
ROOT
HETATM    1  C1  UNL     1       0.825   2.746   0.888  1.00  0.00     0.026 A 
HETATM    2  C2  UNL     1       0.586   1.110   0.627  1.00  0.00     0.011 A 
HETATM    3  C3  UNL     1       1.907   0.201   0.212  1.00  0.00     0.078 C 
HETATM    4  C4  UNL     1       1.757  -1.118   0.950  1.00  0.00     0.009 C 
HETATM    5  C5  UNL     1       0.545  -1.785   0.264  1.00  0.00     0.001 C 
HETATM    6  C6  UNL     1      -0.812  -1.008   0.295  1.00  0.00     0.000 C 
HETATM    7  C7  UNL     1      -0.644   0.510  -0.021  1.00  0.00     0.001 C 
HETATM    8  C8  UNL     1      -0.724   0.589  -1.547  1.00  0.00     0.000 C 
HETATM    9  C9  UNL     1      -1.943  -0.307  -1.796  1.00  0.00     0.000 C 
HETATM   10  C10 UNL     1      -1.728  -1.526  -0.871  1.00  0.00     0.000 C 
HETATM   11  C14 UNL     1      -1.405  -1.123   1.715  1.00  0.00     0.000 C 
HETATM   12  C15 UNL     1       3.459   0.625  -0.312  1.00  0.00     0.012 C 
HETATM   13  C16 UNL     1       3.890   2.327  -0.045  1.00  0.00     0.028 C 
HETATM   14  C17 UNL     1       2.425   3.186   0.285  1.00  0.00     0.101 C 
HETATM   15  O1  UNL     1       2.026   2.173  -0.482  1.00  0.00    -0.307 OA
HETATM   16  C18 UNL     1       2.381   1.379   0.822  1.00  0.00     0.271 C 
HETATM   17  O2  UNL     1       2.880   1.619   1.915  1.00  0.00    -0.264 OA
HETATM   18  C19 UNL     1       2.421   4.506  -0.480  1.00  0.00     0.030 C 
HETATM   19  C20 UNL     1       0.353   1.785   1.979  1.00  0.00     0.003 A 
ENDROOT
BRANCH  10  20
HETATM   20  C11 UNL     1      -3.023  -2.293  -0.519  1.00  0.00     0.000 C 
HETATM   21  C12 UNL     1      -2.720  -3.740  -0.080  1.00  0.00     0.000 C 
HETATM   22  C13 UNL     1      -4.016  -2.367  -1.698  1.00  0.00     0.000 C 
ENDBRANCH  10  20
TORSDOF 1
