REMARK  1 active torsions:
REMARK  status: ('A' for Active; 'I' for Inactive)
REMARK    1  A    between atoms: C9_9  and  C11_13 
ROOT
HETATM    1  C1  UNL     1      -0.446   0.140  -1.133  1.00  0.00     0.007 C 
HETATM    2  C2  UNL     1      -0.373  -1.335  -1.675  1.00  0.00     0.039 C 
HETATM    3  C3  UNL     1       0.352  -2.288  -0.705  1.00  0.00     0.029 C 
HETATM    4  C4  UNL     1       1.685  -1.679  -0.365  1.00  0.00    -0.025 C 
HETATM    5  C5  UNL     1       1.793  -0.362  -0.092  1.00  0.00     0.036 C 
HETATM    6  C6  UNL     1       0.548   0.489   0.018  1.00  0.00     0.026 C 
HETATM    7  C7  UNL     1      -0.028   0.245   1.430  1.00  0.00     0.005 C 
HETATM    8  C8  UNL     1       1.010   1.957  -0.129  1.00  0.00     0.039 C 
HETATM    9  C9  UNL     1       2.192   2.370   0.751  1.00  0.00     0.149 C 
HETATM   10  O1  UNL     1       3.306   1.529   0.579  1.00  0.00    -0.297 OA
HETATM   11  C10 UNL     1       3.122   0.233   0.198  1.00  0.00     0.292 C 
HETATM   12  O2  UNL     1       4.117  -0.480   0.069  1.00  0.00    -0.260 OA
HETATM   13  C15 UNL     1      -1.852  -1.680  -1.871  1.00  0.00     0.206 C 
HETATM   14  C16 UNL     1      -2.508  -0.945  -0.715  1.00  0.00     0.068 C 
HETATM   15  C17 UNL     1      -1.946   0.461  -0.859  1.00  0.00     0.006 C 
HETATM   16  C18 UNL     1      -3.942  -1.402  -0.865  1.00  0.00     0.155 C 
HETATM   17  O4  UNL     1      -3.784  -2.770  -1.189  1.00  0.00    -0.300 OA
HETATM   18  C19 UNL     1      -2.515  -3.020  -1.647  1.00  0.00     0.300 C 
HETATM   19  O5  UNL     1      -2.052  -4.103  -1.921  1.00  0.00    -0.262 OA
HETATM   20  O6  UNL     1      -2.310  -1.180  -3.111  1.00  0.00    -0.216 OA
HETATM   21  C20 UNL     1       0.393  -1.398  -3.021  1.00  0.00     0.003 C 
ENDROOT
BRANCH   9  22
HETATM   22  C11 UNL     1       1.851   2.549   2.209  1.00  0.00     0.032 A 
HETATM   23  C12 UNL     1       0.858   3.326   2.728  1.00  0.00     0.121 A 
HETATM   24  O3  UNL     1       0.833   3.247   4.089  1.00  0.00    -0.303 OA
HETATM   25  C13 UNL     1       1.842   2.402   4.441  1.00  0.00     0.122 A 
HETATM   26  C14 UNL     1       2.500   1.949   3.339  1.00  0.00     0.027 A 
ENDBRANCH   9  22
TORSDOF 1
