REMARK  2 active torsions:
REMARK  status: ('A' for Active; 'I' for Inactive)
REMARK    1  A    between atoms: C18_23  and  O6_24 
REMARK    2  A    between atoms: O6_24  and  C19_25 
ROOT
HETATM    1  C1  UNL     1      -3.211   0.569   0.019  1.00  0.00     0.030 C 
HETATM    2  C2  UNL     1      -3.264  -0.959  -0.068  1.00  0.00     0.003 C 
HETATM    3  C3  UNL     1      -2.328  -1.508  -1.166  1.00  0.00     0.005 C 
HETATM    4  C4  UNL     1      -0.868  -0.998  -0.932  1.00  0.00     0.062 C 
HETATM    5  C5  UNL     1      -0.675   0.471  -0.469  1.00  0.00     0.061 C 
HETATM    6  C6  UNL     1      -1.804   1.003   0.413  1.00  0.00     0.127 C 
HETATM    7  O1  UNL     1      -1.764   2.399   0.481  1.00  0.00    -0.304 OA
HETATM    8  C7  UNL     1      -0.564   3.038   0.573  1.00  0.00     0.274 C 
HETATM    9  C8  UNL     1       0.557   2.153   1.099  1.00  0.00     0.113 C 
HETATM   10  C9  UNL     1       0.659   0.832   0.282  1.00  0.00     0.047 C 
HETATM   11  C10 UNL     1       1.518  -0.231   1.010  1.00  0.00     0.153 C 
HETATM   12  C11 UNL     1       1.515  -0.166   2.540  1.00  0.00     0.037 C 
HETATM   13  C12 UNL     1       1.573   1.272   3.069  1.00  0.00     0.024 C 
HETATM   14  C13 UNL     1       0.286   1.960   2.614  1.00  0.00     0.017 C 
HETATM   15  C14 UNL     1       2.598   2.104   2.345  1.00  0.00    -0.014 C 
HETATM   16  C15 UNL     1       1.933   2.858   1.221  1.00  0.00     0.179 C 
HETATM   17  O2  UNL     1       2.713   2.790   0.044  1.00  0.00    -0.218 OA
HETATM   18  C16 UNL     1       3.905   2.137   2.630  1.00  0.00    -0.007 C 
HETATM   19  O3  UNL     1       2.865  -0.098   0.583  1.00  0.00    -0.223 OA
HETATM   20  O4  UNL     1      -0.447   4.232   0.395  1.00  0.00    -0.264 OA
HETATM   21  C17 UNL     1      -0.682   1.144  -1.862  1.00  0.00     0.147 C 
HETATM   22  O5  UNL     1      -0.218   0.224  -2.822  1.00  0.00    -0.331 OA
HETATM   23  C18 UNL     1      -0.021  -1.029  -2.198  1.00  0.00     0.242 C 
HETATM   24  C21 UNL     1      -2.348  -3.055  -1.052  1.00  0.00     0.000 C 
HETATM   25  C22 UNL     1      -2.950  -1.192  -2.549  1.00  0.00     0.000 C 
ENDROOT
BRANCH  23  26
HETATM   26  O6  UNL     1       1.363  -1.028  -1.929  1.00  0.00    -0.276 OA
BRANCH  26  27
HETATM   27  C19 UNL     1       2.108  -2.151  -1.757  1.00  0.00     0.274 C 
HETATM   28  O7  UNL     1       3.248  -2.079  -1.347  1.00  0.00    -0.264 OA
HETATM   29  C20 UNL     1       1.447  -3.473  -2.088  1.00  0.00     0.106 C 
ENDBRANCH  26  27
ENDBRANCH  23  26
TORSDOF 2
