REMARK  4 active torsions:
REMARK  status: ('A' for Active; 'I' for Inactive)
REMARK    1  A    between atoms: C4_4  and  C12_15 
REMARK    2  A    between atoms: C8_8  and  C9_10 
REMARK    3  A    between atoms: C12_15  and  C13_16 
REMARK    4  A    between atoms: C14_17  and  C15_18 
ROOT
HETATM    1  C1  UNL     1      -0.337  -2.856   0.552  1.00  0.00     0.092 A 
HETATM    2  C2  UNL     1       0.791  -3.539   0.099  1.00  0.00     0.024 A 
HETATM    3  C3  UNL     1       2.019  -2.879   0.179  1.00  0.00     0.007 A 
HETATM    4  C4  UNL     1       2.103  -1.578   0.704  1.00  0.00     0.064 A 
HETATM    5  C5  UNL     1       0.969  -0.903   1.190  1.00  0.00     0.132 A 
HETATM    6  C6  UNL     1      -0.251  -1.568   1.067  1.00  0.00     0.028 A 
HETATM    7  C7  UNL     1      -1.623  -1.054   1.395  1.00  0.00     0.063 C 
HETATM    8  C8  UNL     1      -2.482  -2.327   1.171  1.00  0.00     0.154 C 
HETATM    9  O1  UNL     1      -1.640  -3.306   0.546  1.00  0.00    -0.331 OA
HETATM   10  O3  UNL     1       1.024   0.335   1.745  1.00  0.00    -0.190 OA
ENDROOT
BRANCH   4  11
HETATM   11  C12 UNL     1       3.445  -0.906   0.721  1.00  0.00     0.198 C 
HETATM   12  O5  UNL     1       4.435  -1.496   1.131  1.00  0.00    -0.286 OA
BRANCH  11  13
HETATM   13  C13 UNL     1       3.553   0.494   0.217  1.00  0.00     0.042 C 
HETATM   14  C14 UNL     1       2.627   1.076  -0.577  1.00  0.00     0.003 C 
BRANCH  14  15
HETATM   15  C15 UNL     1       2.660   2.462  -1.071  1.00  0.00     0.000 A 
HETATM   16  C16 UNL     1       1.495   2.995  -1.649  1.00  0.00     0.002 A 
HETATM   17  C17 UNL     1       1.464   4.302  -2.133  1.00  0.00     0.027 A 
HETATM   18  C18 UNL     1       2.594   5.125  -2.074  1.00  0.00     0.131 A 
HETATM   19  C19 UNL     1       3.756   4.588  -1.514  1.00  0.00     0.027 A 
HETATM   20  O4  UNL     1       2.570   6.398  -2.550  1.00  0.00    -0.190 OA
HETATM   21  C20 UNL     1       3.796   3.281  -1.022  1.00  0.00     0.002 A 
ENDBRANCH  14  15
ENDBRANCH  11  13
ENDBRANCH   4  11
BRANCH   8  22
HETATM   22  C9  UNL     1      -3.839  -2.196   0.444  1.00  0.00     0.152 C 
HETATM   23  C10 UNL     1      -4.970  -2.775   1.306  1.00  0.00     0.036 C 
HETATM   24  O2  UNL     1      -3.789  -2.958  -0.739  1.00  0.00    -0.224 OA
HETATM   25  C11 UNL     1      -4.217  -0.775   0.015  1.00  0.00     0.036 C 
ENDBRANCH   8  22
TORSDOF 4
