REMARK  7 active torsions:
REMARK  status: ('A' for Active; 'I' for Inactive)
REMARK    1  A    between atoms: C3_3  and  C20_22 
REMARK    2  A    between atoms: C7_7  and  C12_12 
REMARK    3  A    between atoms: C12_12  and  C13_13 
REMARK    4  A    between atoms: C13_13  and  C14_14 
REMARK    5  A    between atoms: C14_14  and  C15_15 
REMARK    6  A    between atoms: C14_14  and  C17_18 
REMARK    7  A    between atoms: C15_15  and  C16_16 
ROOT
HETATM    1  C1  UNL     1      -3.054  -0.996  -0.640  1.00  0.00     0.026 C 
HETATM    2  C2  UNL     1      -3.161  -2.467  -0.349  1.00  0.00    -0.024 C 
HETATM    3  C3  UNL     1      -2.118  -3.318  -0.232  1.00  0.00     0.037 C 
HETATM    4  C4  UNL     1      -0.670  -2.841  -0.435  1.00  0.00     0.024 C 
HETATM    5  C5  UNL     1      -0.607  -1.302  -0.188  1.00  0.00     0.004 C 
HETATM    6  C6  UNL     1      -1.643  -0.583  -1.069  1.00  0.00     0.005 C 
HETATM    7  C7  UNL     1       0.779  -0.576  -0.109  1.00  0.00     0.000 C 
HETATM    8  C8  UNL     1       1.706  -1.391   0.846  1.00  0.00     0.000 C 
HETATM    9  C9  UNL     1       1.701  -2.900   0.552  1.00  0.00     0.000 C 
HETATM   10  C10 UNL     1       0.288  -3.495   0.585  1.00  0.00     0.004 C 
HETATM   11  C11 UNL     1       3.167  -0.900   0.886  1.00  0.00     0.000 C 
HETATM   12  C18 UNL     1       1.439  -0.451  -1.499  1.00  0.00     0.000 C 
HETATM   13  C19 UNL     1      -0.319  -3.311  -1.865  1.00  0.00     0.005 C 
ENDROOT
BRANCH   7  14
HETATM   14  C12 UNL     1       0.569   0.844   0.538  1.00  0.00     0.000 C 
BRANCH  14  15
HETATM   15  C13 UNL     1       0.831   2.092  -0.329  1.00  0.00     0.003 C 
BRANCH  15  16
HETATM   16  C14 UNL     1       0.413   3.442   0.305  1.00  0.00     0.036 C 
BRANCH  16  17
HETATM   17  C15 UNL     1       0.490   4.540  -0.783  1.00  0.00     0.038 C 
BRANCH  17  18
HETATM   18  C16 UNL     1       0.091   5.952  -0.363  1.00  0.00     0.182 C 
HETATM   19  O1  UNL     1      -1.089   5.911   0.414  1.00  0.00    -0.221 OA
ENDBRANCH  17  18
ENDBRANCH  16  17
BRANCH  16  20
HETATM   20  C17 UNL     1       1.253   3.781   1.540  1.00  0.00     0.182 C 
HETATM   21  O2  UNL     1       0.664   4.844   2.263  1.00  0.00    -0.221 OA
ENDBRANCH  16  20
ENDBRANCH  15  16
ENDBRANCH  14  15
ENDBRANCH   7  14
BRANCH   3  22
HETATM   22  C20 UNL     1      -2.472  -4.750   0.011  1.00  0.00     0.206 C 
HETATM   23  O3  UNL     1      -1.627  -5.634   0.017  1.00  0.00    -0.644 OA
HETATM   24  O4  UNL     1      -3.739  -5.170   0.227  1.00  0.00    -0.644 OA
ENDBRANCH   3  22
TORSDOF 7
