REMARK  3 active torsions:
REMARK  status: ('A' for Active; 'I' for Inactive)
REMARK    1  A    between atoms: C14_17  and  C17_20 
REMARK    2  A    between atoms: C17_20  and  C18_21 
REMARK    3  A    between atoms: C18_21  and  C19_22 
ROOT
HETATM    1  C1  UNL     1      -6.103  -2.789  -1.252  1.00  0.00     0.136 A 
HETATM    2  C2  UNL     1      -6.907  -2.873  -0.111  1.00  0.00     0.030 A 
HETATM    3  C3  UNL     1      -6.394  -2.625   1.161  1.00  0.00     0.032 A 
HETATM    4  C4  UNL     1      -5.052  -2.282   1.335  1.00  0.00     0.154 A 
HETATM    5  C5  UNL     1      -4.222  -2.181   0.212  1.00  0.00     0.130 A 
HETATM    6  C6  UNL     1      -4.754  -2.440  -1.062  1.00  0.00     0.089 A 
HETATM    7  C7  UNL     1      -3.831  -2.280  -2.217  1.00  0.00     0.203 C 
HETATM    8  C8  UNL     1      -2.607  -1.476  -1.955  1.00  0.00     0.087 A 
HETATM    9  C9  UNL     1      -2.236  -1.289  -0.615  1.00  0.00     0.107 A 
HETATM   10  O1  UNL     1      -2.907  -1.882   0.412  1.00  0.00    -0.305 OA
HETATM   11  C10 UNL     1      -1.085  -0.525  -0.350  1.00  0.00     0.045 A 
HETATM   12  C11 UNL     1      -0.354   0.113  -1.365  1.00  0.00     0.098 A 
HETATM   13  C12 UNL     1      -0.768  -0.121  -2.679  1.00  0.00     0.052 A 
HETATM   14  C13 UNL     1      -1.881  -0.897  -3.012  1.00  0.00     0.138 A 
HETATM   15  O2  UNL     1      -2.213  -1.036  -4.325  1.00  0.00    -0.190 OA
HETATM   16  O3  UNL     1       0.769   0.855  -1.118  1.00  0.00    -0.331 OA
HETATM   17  C14 UNL     1       1.508   0.535   0.036  1.00  0.00     0.117 C 
HETATM   18  C15 UNL     1       0.589   0.248   1.204  1.00  0.00     0.001 C 
HETATM   19  C16 UNL     1      -0.627  -0.297   1.022  1.00  0.00     0.002 C 
HETATM   20  C23 UNL     1       2.332  -0.725  -0.264  1.00  0.00     0.035 C 
HETATM   21  O4  UNL     1      -4.090  -2.734  -3.326  1.00  0.00    -0.286 OA
HETATM   22  O5  UNL     1      -4.537  -2.040   2.570  1.00  0.00    -0.188 OA
HETATM   23  O6  UNL     1      -6.662  -3.021  -2.472  1.00  0.00    -0.190 OA
ENDROOT
BRANCH  17  24
HETATM   24  C17 UNL     1       2.414   1.749   0.314  1.00  0.00     0.037 C 
BRANCH  24  25
HETATM   25  C18 UNL     1       3.456   1.599   1.437  1.00  0.00     0.028 C 
BRANCH  25  26
HETATM   26  C19 UNL     1       4.204   2.897   1.641  1.00  0.00    -0.035 C 
HETATM   27  C20 UNL     1       5.527   3.122   1.544  1.00  0.00    -0.048 C 
HETATM   28  C21 UNL     1       6.090   4.508   1.763  1.00  0.00     0.026 C 
HETATM   29  C22 UNL     1       6.574   2.085   1.212  1.00  0.00     0.026 C 
ENDBRANCH  25  26
ENDBRANCH  24  25
ENDBRANCH  17  24
TORSDOF 3
