REMARK  2 active torsions:
REMARK  status: ('A' for Active; 'I' for Inactive)
REMARK    1  A    between atoms: C12_13  and  C14_16 
REMARK    2  A    between atoms: C14_16  and  C15_17 
ROOT
HETATM    1  C1  UNL     1       0.078   4.509  -1.233  1.00  0.00     0.136 A 
HETATM    2  C2  UNL     1      -0.337   5.778  -0.817  1.00  0.00     0.028 A 
HETATM    3  C3  UNL     1      -0.809   6.006   0.474  1.00  0.00     0.004 A 
HETATM    4  C4  UNL     1      -0.880   4.940   1.366  1.00  0.00     0.025 A 
HETATM    5  C5  UNL     1      -0.491   3.646   1.000  1.00  0.00     0.105 A 
HETATM    6  C6  UNL     1      -0.014   3.446  -0.307  1.00  0.00     0.087 A 
HETATM    7  C7  UNL     1       0.405   2.069  -0.677  1.00  0.00     0.203 A 
HETATM    8  C8  UNL     1       0.242   1.000   0.346  1.00  0.00     0.089 A 
HETATM    9  C9  UNL     1      -0.263   1.382   1.602  1.00  0.00     0.130 A 
HETATM   10  O1  UNL     1      -0.591   2.662   1.937  1.00  0.00    -0.305 OA
HETATM   11  C10 UNL     1      -0.440   0.399   2.586  1.00  0.00     0.153 A 
HETATM   12  C11 UNL     1      -0.120  -0.927   2.297  1.00  0.00     0.028 A 
HETATM   13  C12 UNL     1       0.381  -1.307   1.052  1.00  0.00     0.010 A 
HETATM   14  C13 UNL     1       0.564  -0.343   0.050  1.00  0.00     0.132 A 
HETATM   15  O2  UNL     1       1.072  -0.756  -1.145  1.00  0.00    -0.190 OA
HETATM   16  O3  UNL     1      -0.922   0.723   3.816  1.00  0.00    -0.188 OA
HETATM   17  O4  UNL     1       0.866   1.829  -1.787  1.00  0.00    -0.286 OA
HETATM   18  O5  UNL     1       0.502   4.372  -2.520  1.00  0.00    -0.190 OA
ENDROOT
BRANCH  13  19
HETATM   19  C14 UNL     1       0.701  -2.763   0.780  1.00  0.00     0.054 C 
BRANCH  19  20
HETATM   20  C15 UNL     1      -0.307  -3.345  -0.179  1.00  0.00    -0.030 C 
HETATM   21  C16 UNL     1      -0.093  -4.327  -1.073  1.00  0.00    -0.048 C 
HETATM   22  C17 UNL     1      -1.203  -4.815  -1.976  1.00  0.00     0.026 C 
HETATM   23  C18 UNL     1       1.225  -5.037  -1.268  1.00  0.00     0.026 C 
ENDBRANCH  19  20
ENDBRANCH  13  19
TORSDOF 2
