REMARK  1 active torsions:
REMARK  status: ('A' for Active; 'I' for Inactive)
REMARK    1  A    between atoms: C10_10  and  C12_12 
ROOT
HETATM    1  C1  UNL     1      -1.603   1.513   0.178  1.00  0.00    -0.027 C 
HETATM    2  C2  UNL     1      -1.978   0.086  -0.120  1.00  0.00     0.022 C 
HETATM    3  C3  UNL     1      -1.529  -0.646   1.152  1.00  0.00     0.009 C 
HETATM    4  C4  UNL     1      -0.129  -1.227   0.975  1.00  0.00     0.027 C 
HETATM    5  C5  UNL     1       1.029  -0.371   0.493  1.00  0.00    -0.020 A 
HETATM    6  C6  UNL     1       1.035   0.938   0.152  1.00  0.00     0.023 A 
HETATM    7  C7  UNL     1      -0.148   1.901   0.160  1.00  0.00    -0.003 C 
HETATM    8  C8  UNL     1       2.216   1.497  -0.212  1.00  0.00     0.155 A 
HETATM    9  C9  UNL     1       3.361   0.791  -0.274  1.00  0.00     0.152 A 
HETATM   10  C10 UNL     1       3.354  -0.518   0.029  1.00  0.00     0.005 A 
HETATM   11  C11 UNL     1       2.188  -1.053   0.415  1.00  0.00    -0.006 A 
HETATM   12  O1  UNL     1       4.511   1.425  -0.638  1.00  0.00    -0.188 OA
HETATM   13  O2  UNL     1       2.299   2.825  -0.514  1.00  0.00    -0.188 OA
HETATM   14  C15 UNL     1      -3.466  -0.071  -0.520  1.00  0.00     0.004 C 
HETATM   15  C16 UNL     1      -4.338   0.669   0.511  1.00  0.00     0.005 C 
HETATM   16  C17 UNL     1      -4.014   2.166   0.561  1.00  0.00     0.026 C 
HETATM   17  C18 UNL     1      -2.534   2.432   0.494  1.00  0.00    -0.030 C 
HETATM   18  C19 UNL     1      -3.898  -1.554  -0.593  1.00  0.00     0.000 C 
HETATM   19  C20 UNL     1      -3.677   0.517  -1.936  1.00  0.00     0.000 C 
ENDROOT
BRANCH  10  20
HETATM   20  C12 UNL     1       4.626  -1.354  -0.022  1.00  0.00     0.024 C 
HETATM   21  C13 UNL     1       5.187  -1.532   1.398  1.00  0.00     0.005 C 
HETATM   22  C14 UNL     1       4.436  -2.714  -0.717  1.00  0.00     0.005 C 
ENDBRANCH  10  20
TORSDOF 1
