REMARK  8 active torsions:
REMARK  status: ('A' for Active; 'I' for Inactive)
REMARK    1  A    between atoms: C4_4  and  C12_13 
REMARK    2  A    between atoms: C6_6  and  C7_7 
REMARK    3  A    between atoms: C7_7  and  C8_8 
REMARK    4  A    between atoms: C8_8  and  C9_9 
REMARK    5  A    between atoms: C12_13  and  C13_14 
REMARK    6  A    between atoms: C14_15  and  C15_16 
REMARK    7  A    between atoms: C17_18  and  C18_19 
REMARK    8  A    between atoms: C18_19  and  C19_20 
ROOT
HETATM    1  C12 UNL     1       2.233  -3.262   1.373  1.00  0.00     0.198 C 
HETATM    2  O3  UNL     1       2.608  -4.381   1.651  1.00  0.00    -0.286 OA
ENDROOT
BRANCH   1   3
HETATM    3  C4  UNL     1       3.158  -2.262   1.220  1.00  0.00     0.064 A 
HETATM    4  C3  UNL     1       4.470  -2.543   1.041  1.00  0.00     0.136 A 
HETATM    5  C2  UNL     1       5.321  -1.512   0.895  1.00  0.00     0.054 A 
HETATM    6  O4  UNL     1       4.988  -3.799   0.912  1.00  0.00    -0.190 OA
HETATM    7  C1  UNL     1       4.977  -0.216   0.966  1.00  0.00     0.129 A 
HETATM    8  C6  UNL     1       3.682   0.074   1.194  1.00  0.00     0.006 A 
HETATM    9  O5  UNL     1       5.934   0.732   0.791  1.00  0.00    -0.190 OA
HETATM   10  C5  UNL     1       2.829  -0.960   1.330  1.00  0.00     0.003 A 
BRANCH   8  11
HETATM   11  C7  UNL     1       3.128   1.485   1.361  1.00  0.00     0.066 C 
BRANCH  11  12
HETATM   12  C8  UNL     1       3.670   2.611   0.480  1.00  0.00     0.175 C 
HETATM   13  O1  UNL     1       2.800   3.728   0.561  1.00  0.00    -0.219 OA
BRANCH  12  14
HETATM   14  C9  UNL     1       3.810   2.238  -0.978  1.00  0.00    -0.014 C 
HETATM   15  C10 UNL     1       4.956   2.457  -1.643  1.00  0.00    -0.007 C 
HETATM   16  C11 UNL     1       2.602   1.651  -1.667  1.00  0.00     0.029 C 
ENDBRANCH  12  14
ENDBRANCH  11  12
ENDBRANCH   8  11
ENDBRANCH   1   3
BRANCH   1  17
HETATM   17  C13 UNL     1       0.876  -3.143   1.259  1.00  0.00     0.042 C 
HETATM   18  C14 UNL     1       0.152  -2.162   0.687  1.00  0.00     0.003 C 
BRANCH  18  19
HETATM   19  C15 UNL     1      -1.193  -2.046   0.630  1.00  0.00    -0.000 A 
HETATM   20  C16 UNL     1      -1.731  -1.002  -0.033  1.00  0.00    -0.002 A 
HETATM   21  C17 UNL     1      -3.055  -0.769  -0.116  1.00  0.00     0.008 A 
HETATM   22  C23 UNL     1      -3.905  -1.610   0.505  1.00  0.00     0.127 A 
HETATM   23  C24 UNL     1      -3.383  -2.661   1.161  1.00  0.00     0.027 A 
HETATM   24  O2  UNL     1      -5.254  -1.430   0.514  1.00  0.00    -0.191 OA
HETATM   25  C25 UNL     1      -2.062  -2.885   1.222  1.00  0.00     0.002 A 
BRANCH  21  26
HETATM   26  C18 UNL     1      -3.510   0.472  -0.865  1.00  0.00     0.054 C 
BRANCH  26  27
HETATM   27  C19 UNL     1      -4.898   0.427  -1.451  1.00  0.00    -0.030 C 
HETATM   28  C20 UNL     1      -5.833   1.393  -1.389  1.00  0.00    -0.048 C 
HETATM   29  C21 UNL     1      -7.200   1.192  -2.003  1.00  0.00     0.026 C 
HETATM   30  C22 UNL     1      -5.650   2.739  -0.728  1.00  0.00     0.026 C 
ENDBRANCH  26  27
ENDBRANCH  21  26
ENDBRANCH  18  19
ENDBRANCH   1  17
TORSDOF 8
