REMARK  11 active torsions:
REMARK  status: ('A' for Active; 'I' for Inactive)
REMARK    1  A    between atoms: C2_2  and  C3_3 
REMARK    2  A    between atoms: C3_3  and  C4_4 
REMARK    3  A    between atoms: C4_4  and  C5_5 
REMARK    4  A    between atoms: C5_5  and  C6_6 
REMARK    5  A    between atoms: C6_6  and  C7_7 
REMARK    6  A    between atoms: C7_7  and  C8_8 
REMARK    7  A    between atoms: C10_12  and  C27_35 
REMARK    8  A    between atoms: C12_15  and  C20_27 
REMARK    9  A    between atoms: C14_18  and  C17_23 
REMARK   10  A    between atoms: C20_27  and  C21_28 
REMARK   11  A    between atoms: C27_35  and  C28_36 
ROOT
HETATM    1  C8  UNL     1       1.635   1.625  -0.444  1.00  0.00     0.134 C 
HETATM    2  O1  UNL     1       0.878   0.542  -0.914  1.00  0.00    -0.302 OA
HETATM    3  C9  UNL     1       1.461  -0.294  -1.816  1.00  0.00     0.294 C 
HETATM    4  O2  UNL     1       2.515  -0.095  -2.381  1.00  0.00    -0.262 OA
HETATM    5  C10 UNL     1       0.630  -1.561  -2.032  1.00  0.00     0.192 C 
HETATM    6  N1  UNL     1       1.516  -2.720  -1.945  1.00  0.00    -0.228 NA
HETATM    7  C11 UNL     1       1.635  -3.641  -0.927  1.00  0.00     0.275 C 
HETATM    8  C12 UNL     1       0.640  -3.604   0.246  1.00  0.00     0.191 C 
HETATM    9  N2  UNL     1       0.856  -2.468   1.141  1.00  0.00    -0.228 NA
HETATM   10  C13 UNL     1       0.574  -2.557   2.484  1.00  0.00     0.274 C 
HETATM   11  C14 UNL     1       1.075  -1.401   3.351  1.00  0.00     0.186 C 
HETATM   12  N3  UNL     1       0.980  -0.105   2.687  1.00  0.00    -0.230 NA
HETATM   13  C15 UNL     1       1.823   0.295   1.684  1.00  0.00     0.254 C 
HETATM   14  C16 UNL     1       1.480   1.651   1.083  1.00  0.00     0.120 C 
HETATM   15  O3  UNL     1       2.721  -0.392   1.258  1.00  0.00    -0.270 OA
HETATM   16  O4  UNL     1       0.003  -3.506   2.972  1.00  0.00    -0.268 OA
HETATM   17  O5  UNL     1       2.475  -4.511  -0.987  1.00  0.00    -0.268 OA
ENDROOT
BRANCH   1  18
HETATM   18  C7  UNL     1       1.264   2.924  -1.198  1.00  0.00     0.028 C 
HETATM   19  C31 UNL     1       2.545   3.720  -1.521  1.00  0.00     0.003 C 
BRANCH  18  20
HETATM   20  C6  UNL     1       0.222   3.793  -0.464  1.00  0.00     0.002 C 
BRANCH  20  21
HETATM   21  C5  UNL     1      -0.310   5.001  -1.256  1.00  0.00     0.000 C 
BRANCH  21  22
HETATM   22  C4  UNL     1      -1.261   5.862  -0.404  1.00  0.00     0.000 C 
BRANCH  22  23
HETATM   23  C3  UNL     1      -1.800   7.076  -1.179  1.00  0.00     0.000 C 
BRANCH  23  24
HETATM   24  C2  UNL     1      -2.665   7.985  -0.291  1.00  0.00     0.000 C 
HETATM   25  C1  UNL     1      -3.229   9.180  -1.071  1.00  0.00     0.000 C 
ENDBRANCH  23  24
ENDBRANCH  22  23
ENDBRANCH  21  22
ENDBRANCH  20  21
ENDBRANCH  18  20
ENDBRANCH   1  18
BRANCH   5  26
HETATM   26  C27 UNL     1      -0.034  -1.488  -3.432  1.00  0.00     0.032 C 
HETATM   27  C30 UNL     1      -0.851  -0.187  -3.581  1.00  0.00     0.003 C 
BRANCH  26  28
HETATM   28  C28 UNL     1      -0.949  -2.687  -3.767  1.00  0.00     0.003 C 
HETATM   29  C29 UNL     1      -0.224  -3.998  -4.102  1.00  0.00     0.000 C 
ENDBRANCH  26  28
ENDBRANCH   5  26
BRANCH  11  30
HETATM   30  C17 UNL     1       2.451  -1.690   3.993  1.00  0.00     0.032 C 
HETATM   31  C18 UNL     1       2.903  -0.521   4.886  1.00  0.00     0.003 C 
HETATM   32  C19 UNL     1       2.449  -2.990   4.819  1.00  0.00     0.003 C 
ENDBRANCH  11  30
BRANCH   8  33
HETATM   33  C20 UNL     1      -0.834  -3.846  -0.139  1.00  0.00     0.060 C 
BRANCH  33  34
HETATM   34  C21 UNL     1      -1.502  -4.929   0.685  1.00  0.00    -0.020 A 
HETATM   35  C22 UNL     1      -1.196  -6.223   0.478  1.00  0.00    -0.004 A 
HETATM   36  C23 UNL     1      -1.776  -7.196   1.198  1.00  0.00    -0.000 A 
HETATM   37  C24 UNL     1      -2.677  -6.884   2.141  1.00  0.00    -0.000 A 
HETATM   38  C25 UNL     1      -2.995  -5.599   2.356  1.00  0.00    -0.000 A 
HETATM   39  C26 UNL     1      -2.414  -4.632   1.629  1.00  0.00    -0.004 A 
ENDBRANCH  33  34
ENDBRANCH   8  33
TORSDOF 11
