REMARK  5 active torsions:
REMARK  status: ('A' for Active; 'I' for Inactive)
REMARK    1  A    between atoms: C2_2  and  O6_38 
REMARK    2  A    between atoms: C16_16  and  O1_18 
REMARK    3  A    between atoms: O1_18  and  C18_19 
REMARK    4  A    between atoms: C23_25  and  C24_27 
REMARK    5  A    between atoms: O6_38  and  C33_39 
ROOT
HETATM    1  C1  UNL     1      -4.838  -0.441  -0.442  1.00  0.00     0.030 C 
HETATM    2  C2  UNL     1      -4.476  -1.792   0.206  1.00  0.00     0.118 C 
HETATM    3  C3  UNL     1      -3.772  -2.724  -0.816  1.00  0.00     0.025 C 
HETATM    4  C4  UNL     1      -2.423  -2.074  -1.250  1.00  0.00     0.002 C 
HETATM    5  C5  UNL     1      -2.398  -0.552  -1.089  1.00  0.00     0.000 A 
HETATM    6  C6  UNL     1      -3.730   0.123  -1.351  1.00  0.00     0.003 C 
HETATM    7  C7  UNL     1      -1.080   0.142  -1.389  1.00  0.00     0.000 A 
HETATM    8  C8  UNL     1      -0.022  -0.799  -1.994  1.00  0.00     0.000 C 
HETATM    9  C9  UNL     1      -0.684  -1.634  -3.109  1.00  0.00     0.000 C 
HETATM   10  C10 UNL     1      -1.890  -2.479  -2.638  1.00  0.00     0.000 C 
HETATM   11  C11 UNL     1       1.253  -0.009  -2.418  1.00  0.00     0.005 C 
HETATM   12  C12 UNL     1       1.531   1.145  -1.398  1.00  0.00     0.032 C 
HETATM   13  C13 UNL     1       0.425   2.208  -1.633  1.00  0.00     0.003 C 
HETATM   14  C14 UNL     1      -0.986   1.600  -1.823  1.00  0.00     0.000 C 
HETATM   15  C15 UNL     1       2.978   1.618  -1.742  1.00  0.00     0.055 C 
HETATM   16  C16 UNL     1       3.666   0.329  -2.286  1.00  0.00     0.127 C 
HETATM   17  C17 UNL     1       2.585  -0.772  -2.285  1.00  0.00     0.030 C 
HETATM   18  C20 UNL     1       3.614   2.685  -0.795  1.00  0.00     0.098 C 
HETATM   19  C21 UNL     1       5.043   2.466  -0.301  1.00  0.00     0.033 C 
HETATM   20  C22 UNL     1       4.851   1.593   0.946  1.00  0.00     0.061 C 
HETATM   21  C23 UNL     1       3.343   1.692   1.201  1.00  0.00     0.213 C 
HETATM   22  O3  UNL     1       2.906   2.756   0.404  1.00  0.00    -0.337 OA
HETATM   23  O5  UNL     1       2.753   0.518   0.692  1.00  0.00    -0.333 OA
HETATM   24  C27 UNL     1       1.493   0.664   0.082  1.00  0.00     0.145 C 
HETATM   25  C28 UNL     1       3.516   4.086  -1.431  1.00  0.00     0.030 C 
HETATM   26  C29 UNL     1       1.152   0.443  -3.902  1.00  0.00     0.000 C 
HETATM   27  C30 UNL     1      -1.550  -0.025   0.040  1.00  0.00     0.000 A 
HETATM   28  C31 UNL     1      -3.484  -4.115  -0.200  1.00  0.00     0.002 C 
HETATM   29  C32 UNL     1      -4.744  -2.992  -1.991  1.00  0.00     0.002 C 
ENDROOT
BRANCH   2  30
HETATM   30  O6  UNL     1      -3.655  -1.520   1.316  1.00  0.00    -0.332 OA
BRANCH  30  31
HETATM   31  C33 UNL     1      -3.937  -2.240   2.495  1.00  0.00     0.270 C 
HETATM   32  O7  UNL     1      -5.110  -1.720   3.084  1.00  0.00    -0.326 OA
HETATM   33  C34 UNL     1      -4.988  -0.418   3.597  1.00  0.00     0.181 C 
HETATM   34  C35 UNL     1      -3.881  -0.327   4.629  1.00  0.00     0.215 C 
HETATM   35  C36 UNL     1      -2.566  -0.796   4.041  1.00  0.00     0.220 C 
HETATM   36  O10 UNL     1      -4.212  -1.126   5.743  1.00  0.00    -0.218 OA
HETATM   37  C37 UNL     1      -2.742  -2.173   3.427  1.00  0.00     0.241 C 
HETATM   38  O9  UNL     1      -2.147   0.111   3.049  1.00  0.00    -0.218 OA
HETATM   39  O8  UNL     1      -2.919  -3.110   4.464  1.00  0.00    -0.215 OA
ENDBRANCH  30  31
ENDBRANCH   2  30
BRANCH  16  40
HETATM   40  O1  UNL     1       4.769  -0.143  -1.578  1.00  0.00    -0.304 OA
BRANCH  40  41
HETATM   41  C18 UNL     1       6.032  -0.207  -2.095  1.00  0.00     0.272 C 
HETATM   42  O2  UNL     1       6.943  -0.742  -1.499  1.00  0.00    -0.264 OA
HETATM   43  C19 UNL     1       6.282   0.499  -3.418  1.00  0.00     0.106 C 
ENDBRANCH  40  41
ENDBRANCH  16  40
BRANCH  21  44
HETATM   44  C24 UNL     1       3.007   1.909   2.685  1.00  0.00     0.173 C 
HETATM   45  C25 UNL     1       1.528   1.776   3.064  1.00  0.00     0.038 C 
HETATM   46  C26 UNL     1       3.486   3.278   3.194  1.00  0.00     0.038 C 
HETATM   47  O4  UNL     1       3.692   0.927   3.423  1.00  0.00    -0.221 OA
ENDBRANCH  21  44
TORSDOF 5
