REMARK  6 active torsions:
REMARK  status: ('A' for Active; 'I' for Inactive)
REMARK    1  A    between atoms: C2_2  and  O5_35 
REMARK    2  A    between atoms: C12_12  and  C26_29 
REMARK    3  A    between atoms: C15_15  and  C18_19 
REMARK    4  A    between atoms: C21_22  and  C22_24 
REMARK    5  A    between atoms: O5_35  and  C31_36 
REMARK    6  A    between atoms: C32_38  and  C36_45 
ROOT
HETATM    1  C1  UNL     1      -3.499  -0.641   0.733  1.00  0.00     0.030 C 
HETATM    2  C2  UNL     1      -3.326  -2.088   1.220  1.00  0.00     0.118 C 
HETATM    3  C3  UNL     1      -2.361  -2.892   0.316  1.00  0.00     0.025 C 
HETATM    4  C4  UNL     1      -0.960  -2.220   0.469  1.00  0.00     0.002 C 
HETATM    5  C5  UNL     1      -0.951  -0.691   0.569  1.00  0.00     0.000 A 
HETATM    6  C6  UNL     1      -2.238  -0.022   0.113  1.00  0.00     0.003 C 
HETATM    7  C7  UNL     1       0.387   0.026   0.365  1.00  0.00     0.000 A 
HETATM    8  C8  UNL     1       1.672  -0.814   0.211  1.00  0.00     0.000 C 
HETATM    9  C9  UNL     1       1.474  -2.324  -0.044  1.00  0.00     0.000 C 
HETATM   10  C10 UNL     1       0.076  -2.656  -0.579  1.00  0.00     0.000 C 
HETATM   11  C11 UNL     1       2.694  -0.154  -0.745  1.00  0.00     0.005 C 
HETATM   12  C12 UNL     1       2.912   1.350  -0.366  1.00  0.00     0.035 C 
HETATM   13  C13 UNL     1       1.645   2.085  -0.826  1.00  0.00     0.003 C 
HETATM   14  C14 UNL     1       0.346   1.401  -0.335  1.00  0.00     0.000 C 
HETATM   15  C15 UNL     1       4.311   1.714  -0.976  1.00  0.00     0.058 C 
HETATM   16  C16 UNL     1       4.986   0.363  -1.286  1.00  0.00     0.154 C 
HETATM   17  C17 UNL     1       4.125  -0.712  -0.628  1.00  0.00     0.033 C 
HETATM   18  O1  UNL     1       6.296   0.277  -0.778  1.00  0.00    -0.223 OA
HETATM   19  C27 UNL     1       2.220  -0.387  -2.202  1.00  0.00     0.000 C 
HETATM   20  C28 UNL     1      -0.252  -0.057   1.743  1.00  0.00     0.000 A 
HETATM   21  C29 UNL     1      -2.246  -4.362   0.797  1.00  0.00     0.002 C 
HETATM   22  C30 UNL     1      -2.871  -2.961  -1.140  1.00  0.00     0.002 C 
ENDROOT
BRANCH   2  23
HETATM   23  O5  UNL     1      -4.614  -2.642   1.287  1.00  0.00    -0.332 OA
BRANCH  23  24
HETATM   24  C31 UNL     1      -4.877  -3.505   2.376  1.00  0.00     0.270 C 
HETATM   25  O6  UNL     1      -5.489  -4.658   1.836  1.00  0.00    -0.326 OA
HETATM   26  C32 UNL     1      -6.726  -4.415   1.219  1.00  0.00     0.184 C 
HETATM   27  C33 UNL     1      -7.713  -3.832   2.221  1.00  0.00     0.215 C 
HETATM   28  C34 UNL     1      -7.162  -2.599   2.908  1.00  0.00     0.220 C 
HETATM   29  O9  UNL     1      -8.893  -3.438   1.561  1.00  0.00    -0.218 OA
HETATM   30  C35 UNL     1      -5.764  -2.866   3.422  1.00  0.00     0.241 C 
HETATM   31  O8  UNL     1      -7.115  -1.552   1.968  1.00  0.00    -0.218 OA
HETATM   32  O7  UNL     1      -5.205  -1.648   3.851  1.00  0.00    -0.215 OA
BRANCH  26  33
HETATM   33  C36 UNL     1      -7.225  -5.728   0.628  1.00  0.00     0.214 C 
HETATM   34  O10 UNL     1      -6.345  -6.160  -0.391  1.00  0.00    -0.218 OA
ENDBRANCH  26  33
ENDBRANCH  23  24
ENDBRANCH   2  23
BRANCH  12  35
HETATM   35  C26 UNL     1       3.010   1.593   1.168  1.00  0.00     0.182 C 
HETATM   36  O4  UNL     1       3.288   2.949   1.468  1.00  0.00    -0.221 OA
ENDBRANCH  12  35
BRANCH  15  37
HETATM   37  C18 UNL     1       4.503   2.836  -2.033  1.00  0.00     0.095 C 
HETATM   38  C19 UNL     1       5.976   3.308  -2.030  1.00  0.00     0.030 C 
HETATM   39  C20 UNL     1       5.912   4.651  -1.298  1.00  0.00     0.035 C 
HETATM   40  C21 UNL     1       4.544   5.107  -1.782  1.00  0.00     0.143 C 
HETATM   41  O2  UNL     1       3.752   3.960  -1.656  1.00  0.00    -0.359 OA
HETATM   42  C25 UNL     1       4.097   2.472  -3.469  1.00  0.00     0.030 C 
BRANCH  40  43
HETATM   43  C22 UNL     1       3.928   6.322  -1.085  1.00  0.00     0.152 C 
HETATM   44  O3  UNL     1       2.961   6.861  -1.952  1.00  0.00    -0.224 OA
HETATM   45  C23 UNL     1       4.971   7.416  -0.841  1.00  0.00     0.035 C 
HETATM   46  C24 UNL     1       3.219   5.988   0.227  1.00  0.00     0.035 C 
ENDBRANCH  40  43
ENDBRANCH  15  37
TORSDOF 6
