REMARK  2 active torsions:
REMARK  status: ('A' for Active; 'I' for Inactive)
REMARK    1  A    between atoms: C16_16  and  C25_25 
REMARK    2  A    between atoms: C21_21  and  C22_22 
ROOT
HETATM    1  C1  UNL     1      -4.236   0.002  -2.604  1.00  0.00     0.033 C 
HETATM    2  C2  UNL     1      -5.117  -0.984  -1.852  1.00  0.00     0.152 C 
HETATM    3  C3  UNL     1      -4.295  -2.029  -1.068  1.00  0.00     0.028 C 
HETATM    4  C4  UNL     1      -2.823  -1.540  -0.795  1.00  0.00     0.002 C 
HETATM    5  C5  UNL     1      -2.590  -0.014  -0.549  1.00  0.00     0.000 C 
HETATM    6  C6  UNL     1      -3.264   0.786  -1.707  1.00  0.00     0.003 C 
HETATM    7  C7  UNL     1      -1.058   0.384  -0.410  1.00  0.00     0.000 C 
HETATM    8  C8  UNL     1      -0.013  -0.778  -0.432  1.00  0.00     0.000 C 
HETATM    9  C9  UNL     1      -0.360  -1.568  -1.714  1.00  0.00     0.000 C 
HETATM   10  C10 UNL     1      -1.790  -2.124  -1.783  1.00  0.00     0.000 C 
HETATM   11  C11 UNL     1       1.479  -0.232  -0.505  1.00  0.00     0.000 C 
HETATM   12  C12 UNL     1       1.704   0.693   0.734  1.00  0.00     0.001 C 
HETATM   13  C13 UNL     1       0.753   1.895   0.686  1.00  0.00     0.000 C 
HETATM   14  C14 UNL     1      -0.712   1.430   0.675  1.00  0.00     0.000 C 
HETATM   15  C15 UNL     1       3.178   1.071   0.949  1.00  0.00     0.011 C 
HETATM   16  C16 UNL     1       4.090  -0.170   1.031  1.00  0.00     0.059 C 
HETATM   17  C17 UNL     1       3.992  -0.947  -0.286  1.00  0.00     0.007 C 
HETATM   18  C18 UNL     1       2.532  -1.386  -0.517  1.00  0.00     0.000 C 
HETATM   19  C19 UNL     1       5.446   0.489   1.330  1.00  0.00     0.008 C 
HETATM   20  C20 UNL     1       5.090   1.542   2.398  1.00  0.00     0.004 C 
HETATM   21  C21 UNL     1       3.598   1.898   2.179  1.00  0.00     0.019 C 
HETATM   22  C26 UNL     1       1.760   0.553  -1.822  1.00  0.00     0.000 C 
HETATM   23  C27 UNL     1      -0.196  -1.701   0.806  1.00  0.00     0.000 C 
HETATM   24  C28 UNL     1      -3.319   0.393   0.762  1.00  0.00     0.000 C 
HETATM   25  C29 UNL     1      -4.332  -3.345  -1.900  1.00  0.00     0.003 C 
HETATM   26  C30 UNL     1      -5.010  -2.451   0.247  1.00  0.00     0.003 C 
HETATM   27  O2  UNL     1      -6.019  -0.275  -1.036  1.00  0.00    -0.224 OA
ENDROOT
BRANCH  21  28
HETATM   28  C22 UNL     1       3.373   3.396   2.105  1.00  0.00    -0.044 C 
HETATM   29  C23 UNL     1       2.771   4.055   3.109  1.00  0.00    -0.009 C 
HETATM   30  C24 UNL     1       3.871   4.140   0.888  1.00  0.00     0.026 C 
ENDBRANCH  21  28
BRANCH  16  31
HETATM   31  C25 UNL     1       3.824  -1.146   2.176  1.00  0.00     0.206 C 
HETATM   32  O1  UNL     1       2.986  -1.003   3.033  1.00  0.00    -0.288 OA
ENDBRANCH  16  31
TORSDOF 2
