REMARK  13 active torsions:
REMARK  status: ('A' for Active; 'I' for Inactive)
REMARK    1  A    between atoms: C2_2  and  O8_48 
REMARK    2  A    between atoms: C10_11  and  C11_12 
REMARK    3  A    between atoms: C24_27  and  O4_29 
REMARK    4  A    between atoms: O4_29  and  C26_30 
REMARK    5  A    between atoms: C26_30  and  C27_31 
REMARK    6  A    between atoms: C28_32  and  C29_33 
REMARK    7  A    between atoms: C29_33  and  C30_34 
REMARK    8  A    between atoms: C30_34  and  C31_35 
REMARK    9  A    between atoms: O8_48  and  C41_49 
REMARK   10  A    between atoms: C41_49  and  C42_50 
REMARK   11  A    between atoms: C42_50  and  C43_51 
REMARK   12  A    between atoms: C44_52  and  C45_53 
REMARK   13  A    between atoms: C45_53  and  C46_54 
ROOT
HETATM    1  C1  UNL     1      -3.622   3.216   1.295  1.00  0.00     0.052 A 
HETATM    2  C2  UNL     1      -3.770   2.096   2.020  1.00  0.00     0.096 A 
HETATM    3  C3  UNL     1      -2.645   1.383   2.202  1.00  0.00     0.021 A 
HETATM    4  C4  UNL     1      -1.451   1.773   1.715  1.00  0.00    -0.011 A 
HETATM    5  C5  UNL     1      -1.332   2.940   1.054  1.00  0.00     0.061 A 
HETATM    6  C6  UNL     1      -2.452   3.660   0.809  1.00  0.00     0.136 A 
HETATM    7  O1  UNL     1      -2.471   4.845   0.132  1.00  0.00    -0.190 OA
HETATM    8  C7  UNL     1      -0.108   3.409   0.664  1.00  0.00     0.199 C 
HETATM    9  C8  UNL     1       1.050   2.841   1.117  1.00  0.00     0.061 A 
HETATM   10  C9  UNL     1       1.000   1.677   1.794  1.00  0.00    -0.013 A 
HETATM   11  C10 UNL     1      -0.263   0.851   1.838  1.00  0.00     0.053 C 
HETATM   12  C36 UNL     1       2.110   1.165   2.358  1.00  0.00    -0.008 A 
HETATM   13  C37 UNL     1       3.305   1.750   2.210  1.00  0.00    -0.020 A 
HETATM   14  C38 UNL     1       3.348   2.869   1.475  1.00  0.00     0.023 A 
HETATM   15  C39 UNL     1       2.255   3.440   0.935  1.00  0.00     0.133 A 
HETATM   16  O6  UNL     1       2.467   4.589   0.228  1.00  0.00    -0.190 OA
HETATM   17  C40 UNL     1       4.564   1.147   2.783  1.00  0.00     0.031 C 
HETATM   18  O7  UNL     1      -0.055   4.433   0.023  1.00  0.00    -0.286 OA
ENDROOT
BRANCH  11  19
HETATM   19  C11 UNL     1      -0.250  -0.183   0.653  1.00  0.00     0.053 C 
HETATM   20  C12 UNL     1       1.039  -0.969   0.653  1.00  0.00    -0.011 A 
HETATM   21  C13 UNL     1       1.157  -2.099   1.376  1.00  0.00     0.061 A 
HETATM   22  C25 UNL     1       2.100  -0.461   0.001  1.00  0.00     0.021 A 
HETATM   23  C14 UNL     1       0.047  -2.670   1.934  1.00  0.00     0.199 C 
HETATM   24  C22 UNL     1       2.388  -2.652   1.504  1.00  0.00     0.136 A 
HETATM   25  C15 UNL     1      -1.205  -2.284   1.543  1.00  0.00     0.061 A 
HETATM   26  O3  UNL     1       0.171  -3.633   2.655  1.00  0.00    -0.286 OA
HETATM   27  C16 UNL     1      -1.380  -1.165   0.816  1.00  0.00    -0.013 A 
HETATM   28  C20 UNL     1      -2.286  -3.043   1.847  1.00  0.00     0.133 A 
HETATM   29  C17 UNL     1      -2.584  -0.866   0.302  1.00  0.00    -0.008 A 
HETATM   30  C18 UNL     1      -3.651  -1.646   0.526  1.00  0.00    -0.020 A 
HETATM   31  C19 UNL     1      -3.480  -2.706   1.329  1.00  0.00     0.023 A 
HETATM   32  C21 UNL     1      -4.994  -1.307  -0.072  1.00  0.00     0.031 C 
HETATM   33  O2  UNL     1      -2.231  -4.178   2.601  1.00  0.00    -0.190 OA
HETATM   34  C23 UNL     1       3.417  -2.097   0.837  1.00  0.00     0.052 A 
HETATM   35  O5  UNL     1       2.672  -3.797   2.195  1.00  0.00    -0.190 OA
HETATM   36  C24 UNL     1       3.327  -1.001   0.065  1.00  0.00     0.096 A 
BRANCH  36  37
HETATM   37  O4  UNL     1       4.357  -0.422  -0.637  1.00  0.00    -0.326 OA
BRANCH  37  38
HETATM   38  C26 UNL     1       5.594  -1.104  -0.697  1.00  0.00     0.174 C 
BRANCH  38  39
HETATM   39  C27 UNL     1       6.623  -0.314  -1.469  1.00  0.00    -0.002 C 
HETATM   40  C28 UNL     1       7.738  -0.818  -2.032  1.00  0.00    -0.045 C 
HETATM   41  C35 UNL     1       8.102  -2.284  -1.979  1.00  0.00     0.026 C 
BRANCH  40  42
HETATM   42  C29 UNL     1       8.757   0.088  -2.698  1.00  0.00     0.026 C 
BRANCH  42  43
HETATM   43  C30 UNL     1       9.090  -0.292  -4.150  1.00  0.00     0.030 C 
BRANCH  43  44
HETATM   44  C31 UNL     1      10.160   0.622  -4.702  1.00  0.00    -0.034 C 
HETATM   45  C32 UNL     1      11.313   0.275  -5.303  1.00  0.00    -0.048 C 
HETATM   46  C33 UNL     1      12.306   1.329  -5.741  1.00  0.00     0.026 C 
HETATM   47  C34 UNL     1      11.756  -1.139  -5.593  1.00  0.00     0.026 C 
ENDBRANCH  43  44
ENDBRANCH  42  43
ENDBRANCH  40  42
ENDBRANCH  38  39
ENDBRANCH  37  38
ENDBRANCH  36  37
ENDBRANCH  11  19
BRANCH   2  48
HETATM   48  O8  UNL     1      -5.029   1.772   2.461  1.00  0.00    -0.330 OA
BRANCH  48  49
HETATM   49  C41 UNL     1      -5.254   0.572   3.147  1.00  0.00     0.153 C 
BRANCH  49  50
HETATM   50  C42 UNL     1      -6.759   0.414   3.392  1.00  0.00     0.054 C 
BRANCH  50  51
HETATM   51  C43 UNL     1      -7.554   0.255   2.107  1.00  0.00    -0.045 C 
HETATM   52  C44 UNL     1      -7.998  -0.955   1.718  1.00  0.00    -0.030 C 
HETATM   53  C50 UNL     1      -7.772   1.500   1.280  1.00  0.00     0.026 C 
BRANCH  52  54
HETATM   54  C45 UNL     1      -8.702  -1.260   0.418  1.00  0.00     0.051 C 
BRANCH  54  55
HETATM   55  C46 UNL     1     -10.198  -1.263   0.594  1.00  0.00    -0.030 C 
HETATM   56  C47 UNL     1     -11.115  -0.639  -0.168  1.00  0.00    -0.048 C 
HETATM   57  C48 UNL     1     -12.593  -0.779   0.126  1.00  0.00     0.026 C 
HETATM   58  C49 UNL     1     -10.813   0.230  -1.366  1.00  0.00     0.026 C 
ENDBRANCH  54  55
ENDBRANCH  52  54
ENDBRANCH  50  51
ENDBRANCH  49  50
ENDBRANCH  48  49
ENDBRANCH   2  48
TORSDOF 13
