REMARK  6 active torsions:
REMARK  status: ('A' for Active; 'I' for Inactive)
REMARK    1  A    between atoms: C5_5  and  C7_7 
REMARK    2  A    between atoms: C7_7  and  C8_8 
REMARK    3  A    between atoms: C8_8  and  C9_9 
REMARK    4  A    between atoms: C10_10  and  C15_17 
REMARK    5  A    between atoms: C15_17  and  C16_18 
REMARK    6  A    between atoms: C16_18  and  C17_20 
ROOT
HETATM    1  C9  UNL     1      -1.046  -0.715  -0.075  1.00  0.00    -0.022 A 
HETATM    2  C10 UNL     1      -1.570   0.400  -0.646  1.00  0.00     0.002 A 
HETATM    3  C11 UNL     1      -2.911   0.573  -0.636  1.00  0.00     0.129 A 
HETATM    4  C12 UNL     1      -3.695  -0.353  -0.060  1.00  0.00     0.054 A 
HETATM    5  C13 UNL     1      -3.205  -1.458   0.515  1.00  0.00     0.133 A 
HETATM    6  C14 UNL     1      -1.875  -1.612   0.490  1.00  0.00     0.023 A 
HETATM    7  O1  UNL     1      -4.018  -2.386   1.087  1.00  0.00    -0.190 OA
HETATM    8  O2  UNL     1      -3.530   1.644  -1.201  1.00  0.00    -0.190 OA
ENDROOT
BRANCH   1   9
HETATM    9  C8  UNL     1       0.459  -0.968  -0.075  1.00  0.00     0.031 C 
BRANCH   9  10
HETATM   10  C7  UNL     1       0.973  -2.345   0.379  1.00  0.00     0.031 C 
BRANCH  10  11
HETATM   11  C5  UNL     1       2.475  -2.569   0.332  1.00  0.00    -0.022 A 
HETATM   12  C4  UNL     1       2.960  -3.784   0.654  1.00  0.00    -0.004 A 
HETATM   13  C3  UNL     1       4.277  -4.042   0.639  1.00  0.00    -0.000 A 
HETATM   14  C2  UNL     1       5.143  -3.077   0.298  1.00  0.00    -0.000 A 
HETATM   15  C1  UNL     1       4.680  -1.861  -0.026  1.00  0.00    -0.000 A 
HETATM   16  C6  UNL     1       3.360  -1.613  -0.008  1.00  0.00    -0.004 A 
ENDBRANCH  10  11
ENDBRANCH   9  10
ENDBRANCH   1   9
BRANCH   2  17
HETATM   17  C15 UNL     1      -0.641   1.419  -1.306  1.00  0.00     0.065 C 
BRANCH  17  18
HETATM   18  C16 UNL     1      -1.034   2.896  -1.394  1.00  0.00     0.175 C 
HETATM   19  O3  UNL     1       0.052   3.623  -1.946  1.00  0.00    -0.219 OA
BRANCH  18  20
HETATM   20  C17 UNL     1      -1.379   3.556  -0.077  1.00  0.00    -0.014 C 
HETATM   21  C18 UNL     1      -2.396   4.428   0.011  1.00  0.00    -0.007 C 
HETATM   22  C19 UNL     1      -0.497   3.260   1.111  1.00  0.00     0.029 C 
ENDBRANCH  18  20
ENDBRANCH  17  18
ENDBRANCH   2  17
TORSDOF 6
