REMARK  8 active torsions:
REMARK  status: ('A' for Active; 'I' for Inactive)
REMARK    1  A    between atoms: C1_1  and  C2_2 
REMARK    2  A    between atoms: C3_3  and  C4_4 
REMARK    3  A    between atoms: C5_5  and  C6_6 
REMARK    4  A    between atoms: C6_6  and  C7_7 
REMARK    5  A    between atoms: C7_7  and  C8_8 
REMARK    6  A    between atoms: C8_8  and  O1_9 
REMARK    7  A    between atoms: O1_9  and  C9_10 
REMARK    8  A    between atoms: C10_12  and  C14_19 
ROOT
HETATM    1  C1  UNL     1       4.543   0.210   5.802  1.00  0.00    -0.013 C 
HETATM    2  C15 UNL     1       5.158   0.212   6.847  1.00  0.00    -0.077 C 
HETATM    3  C16 UNL     1       5.888   0.212   8.123  1.00  0.00     0.091 C 
ENDROOT
BRANCH   1   4
HETATM    4  C2  UNL     1       3.921   0.206   4.761  1.00  0.00    -0.001 C 
HETATM    5  C3  UNL     1       3.288   0.201   3.728  1.00  0.00    -0.001 C 
BRANCH   5   6
HETATM    6  C4  UNL     1       2.643   0.194   2.702  1.00  0.00    -0.011 C 
HETATM    7  C5  UNL     1       1.982   0.185   1.686  1.00  0.00    -0.045 C 
BRANCH   7   8
HETATM    8  C6  UNL     1       1.124   0.170   0.483  1.00  0.00     0.218 C 
HETATM    9  O7  UNL     1       0.021  -0.697   0.711  1.00  0.00    -0.209 OA
BRANCH   8  10
HETATM   10  C7  UNL     1       1.871  -0.251  -0.784  1.00  0.00     0.079 C 
BRANCH  10  11
HETATM   11  C8  UNL     1       1.089   0.014  -2.074  1.00  0.00     0.149 C 
BRANCH  11  12
HETATM   12  O1  UNL     1      -0.191  -0.539  -1.926  1.00  0.00    -0.329 OA
BRANCH  12  13
HETATM   13  C9  UNL     1      -1.000  -0.504  -3.076  1.00  0.00     0.270 C 
HETATM   14  O2  UNL     1      -1.456   0.811  -3.303  1.00  0.00    -0.326 OA
HETATM   15  C10 UNL     1      -2.427   1.319  -2.424  1.00  0.00     0.184 C 
HETATM   16  C11 UNL     1      -3.572   0.349  -2.158  1.00  0.00     0.215 C 
HETATM   17  C12 UNL     1      -3.119  -1.069  -1.867  1.00  0.00     0.220 C 
HETATM   18  O5  UNL     1      -4.419   0.316  -3.287  1.00  0.00    -0.218 OA
HETATM   19  C13 UNL     1      -2.131  -1.499  -2.933  1.00  0.00     0.241 C 
HETATM   20  O4  UNL     1      -2.514  -1.145  -0.598  1.00  0.00    -0.218 OA
HETATM   21  O3  UNL     1      -2.800  -1.614  -4.167  1.00  0.00    -0.215 OA
BRANCH  15  22
HETATM   22  C14 UNL     1      -1.807   1.944  -1.180  1.00  0.00     0.214 C 
HETATM   23  O6  UNL     1      -2.747   2.787  -0.541  1.00  0.00    -0.218 OA
ENDBRANCH  15  22
ENDBRANCH  12  13
ENDBRANCH  11  12
ENDBRANCH  10  11
ENDBRANCH   8  10
ENDBRANCH   7   8
ENDBRANCH   5   6
ENDBRANCH   1   4
TORSDOF 8
