REMARK  8 active torsions:
REMARK  status: ('A' for Active; 'I' for Inactive)
REMARK    1  A    between atoms: C3_3  and  C4_4 
REMARK    2  A    between atoms: C5_5  and  C6_6 
REMARK    3  A    between atoms: C7_7  and  C8_8 
REMARK    4  A    between atoms: C8_8  and  C9_9 
REMARK    5  A    between atoms: C9_9  and  C10_10 
REMARK    6  A    between atoms: C10_10  and  O1_11 
REMARK    7  A    between atoms: O1_11  and  C11_12 
REMARK    8  A    between atoms: C12_14  and  C16_21 
ROOT
HETATM    1  O1  UNL     1      -0.443  -0.809  -2.055  1.00  0.00    -0.329 OA
ENDROOT
BRANCH   1   2
HETATM    2  C10 UNL     1       0.894  -0.404  -2.245  1.00  0.00     0.149 C 
BRANCH   2   3
HETATM    3  C9  UNL     1       1.704  -0.602  -0.959  1.00  0.00     0.079 C 
BRANCH   3   4
HETATM    4  C8  UNL     1       1.555   0.509   0.078  1.00  0.00     0.218 C 
HETATM    5  O7  UNL     1       0.217   0.587   0.533  1.00  0.00    -0.209 OA
BRANCH   4   6
HETATM    6  C7  UNL     1       2.418   0.340   1.264  1.00  0.00    -0.045 C 
HETATM    7  C6  UNL     1       3.026   0.237   2.309  1.00  0.00    -0.011 C 
BRANCH   7   8
HETATM    8  C5  UNL     1       3.599   0.149   3.373  1.00  0.00    -0.009 C 
HETATM    9  C4  UNL     1       4.144   0.076   4.454  1.00  0.00    -0.051 C 
BRANCH   9  10
HETATM   10  C3  UNL     1       4.710   0.010   5.639  1.00  0.00     0.045 C 
HETATM   11  C2  UNL     1       4.534   0.988   6.540  1.00  0.00    -0.017 C 
HETATM   12  C1  UNL     1       5.140   0.979   7.918  1.00  0.00     0.031 C 
ENDBRANCH   9  10
ENDBRANCH   7   8
ENDBRANCH   4   6
ENDBRANCH   3   4
ENDBRANCH   2   3
ENDBRANCH   1   2
BRANCH   1  13
HETATM   13  C11 UNL     1      -1.216  -0.772  -3.237  1.00  0.00     0.270 C 
HETATM   14  O2  UNL     1      -1.631   0.550  -3.501  1.00  0.00    -0.326 OA
HETATM   15  C12 UNL     1      -2.669   1.060  -2.709  1.00  0.00     0.184 C 
HETATM   16  C13 UNL     1      -3.876   0.133  -2.663  1.00  0.00     0.215 C 
HETATM   17  C14 UNL     1      -3.521  -1.301  -2.319  1.00  0.00     0.220 C 
HETATM   18  O5  UNL     1      -4.501   0.138  -3.929  1.00  0.00    -0.218 OA
HETATM   19  C15 UNL     1      -2.367  -1.756  -3.190  1.00  0.00     0.241 C 
HETATM   20  O4  UNL     1      -3.175  -1.423  -0.961  1.00  0.00    -0.218 OA
HETATM   21  O3  UNL     1      -2.850  -1.932  -4.504  1.00  0.00    -0.215 OA
BRANCH  15  22
HETATM   22  C16 UNL     1      -2.181   1.536  -1.349  1.00  0.00     0.214 C 
HETATM   23  O6  UNL     1      -3.119   2.426  -0.776  1.00  0.00    -0.218 OA
ENDBRANCH  15  22
ENDBRANCH   1  13
TORSDOF 8
