REMARK  1 active torsions:
REMARK  status: ('A' for Active; 'I' for Inactive)
REMARK    1  A    between atoms: C11_12  and  C13_15 
ROOT
HETATM    1  C1  UNL     1       4.518  -1.260  -0.077  1.00  0.00     0.117 A 
HETATM    2  O1  UNL     1       4.063   0.066  -0.092  1.00  0.00    -0.332 OA
HETATM    3  C2  UNL     1       2.715   0.317  -0.079  1.00  0.00     0.096 A 
HETATM    4  C3  UNL     1       1.748  -0.619   0.013  1.00  0.00     0.045 A 
HETATM    5  C4  UNL     1       2.117  -1.908   0.102  1.00  0.00     0.002 A 
HETATM    6  C5  UNL     1       3.406  -2.262   0.075  1.00  0.00     0.001 A 
HETATM    7  C6  UNL     1       0.433  -0.296   0.025  1.00  0.00     0.105 A 
HETATM    8  C7  UNL     1       0.060   0.993  -0.061  1.00  0.00     0.062 A 
HETATM    9  C8  UNL     1       1.016   1.935  -0.162  1.00  0.00     0.007 A 
HETATM   10  C9  UNL     1       2.311   1.595  -0.171  1.00  0.00     0.024 A 
HETATM   11  C10 UNL     1      -1.260   1.345  -0.047  1.00  0.00     0.199 A 
HETATM   12  C11 UNL     1      -2.243   0.396   0.058  1.00  0.00     0.064 A 
HETATM   13  C12 UNL     1      -1.807  -0.880   0.140  1.00  0.00     0.126 A 
HETATM   14  O2  UNL     1      -0.507  -1.271   0.125  1.00  0.00    -0.305 OA
HETATM   15  O4  UNL     1      -1.482   2.532  -0.132  1.00  0.00    -0.286 OA
HETATM   16  C19 UNL     1       5.491  -1.410   1.099  1.00  0.00     0.035 C 
HETATM   17  C20 UNL     1       5.247  -1.528  -1.399  1.00  0.00     0.035 C 
ENDROOT
BRANCH  12  18
HETATM   18  C13 UNL     1      -3.580   0.691   0.082  1.00  0.00     0.005 A 
HETATM   19  C14 UNL     1      -4.537  -0.263   0.184  1.00  0.00     0.002 A 
HETATM   20  C15 UNL     1      -5.858  -0.019   0.213  1.00  0.00     0.027 A 
HETATM   21  C16 UNL     1      -6.342   1.227   0.141  1.00  0.00     0.131 A 
HETATM   22  C17 UNL     1      -5.429   2.201   0.039  1.00  0.00     0.027 A 
HETATM   23  O3  UNL     1      -7.675   1.494   0.169  1.00  0.00    -0.190 OA
HETATM   24  C18 UNL     1      -4.112   1.934   0.012  1.00  0.00     0.002 A 
ENDBRANCH  12  18
TORSDOF 1
