REMARK  3 active torsions:
REMARK  status: ('A' for Active; 'I' for Inactive)
REMARK    1  A    between atoms: C12_12  and  O1_13 
REMARK    2  A    between atoms: C18_22  and  O7_28 
REMARK    3  A    between atoms: C19_23  and  O6_26 
ROOT
HETATM    1  C1  UNL     1      -0.477   1.232   0.035  1.00  0.00     0.025 A 
HETATM    2  C2  UNL     1      -0.531  -0.119   0.041  1.00  0.00     0.025 A 
HETATM    3  C3  UNL     1       0.295  -0.881  -0.695  1.00  0.00    -0.018 A 
HETATM    4  C4  UNL     1       1.419  -0.297  -1.519  1.00  0.00     0.027 C 
HETATM    5  C5  UNL     1       2.702  -0.432  -0.684  1.00  0.00     0.007 C 
HETATM    6  C6  UNL     1       2.469   0.044   0.773  1.00  0.00     0.035 C 
HETATM    7  C7  UNL     1       1.958   1.482   0.926  1.00  0.00     0.174 C 
HETATM    8  C8  UNL     1       0.603   1.975   0.403  1.00  0.00     0.012 A 
HETATM    9  C9  UNL     1       0.459   3.318   0.441  1.00  0.00     0.025 A 
HETATM   10  C10 UNL     1      -0.687   3.895   0.076  1.00  0.00     0.121 A 
HETATM   11  C11 UNL     1      -1.705   3.152  -0.351  1.00  0.00     0.141 A 
HETATM   12  C12 UNL     1      -1.620   1.816  -0.428  1.00  0.00     0.118 A 
HETATM   13  O2  UNL     1      -2.665   3.855  -0.661  1.00  0.00    -0.298 OA
HETATM   14  C14 UNL     1      -2.302   5.212  -0.402  1.00  0.00     0.304 A 
HETATM   15  O3  UNL     1      -0.961   5.092   0.072  1.00  0.00    -0.299 OA
HETATM   16  O4  UNL     1       2.983   2.338   0.446  1.00  0.00    -0.219 OA
HETATM   17  C15 UNL     1       3.726  -0.196   1.639  1.00  0.00     0.003 C 
HETATM   18  C16 UNL     1       3.885   0.194  -1.442  1.00  0.00     0.000 C 
HETATM   19  C17 UNL     1       0.121  -2.212  -0.693  1.00  0.00     0.022 A 
HETATM   20  C18 UNL     1      -0.843  -2.839   0.004  1.00  0.00     0.118 A 
HETATM   21  C19 UNL     1      -1.647  -2.068   0.773  1.00  0.00     0.141 A 
HETATM   22  C20 UNL     1      -1.480  -0.726   0.788  1.00  0.00     0.155 A 
HETATM   23  O5  UNL     1      -2.293   0.015   1.601  1.00  0.00    -0.188 OA
ENDROOT
BRANCH  12  24
HETATM   24  O1  UNL     1      -2.722   1.111  -0.862  1.00  0.00    -0.326 OA
HETATM   25  C13 UNL     1      -2.759   0.934  -2.261  1.00  0.00     0.181 C 
ENDBRANCH  12  24
BRANCH  21  26
HETATM   26  O6  UNL     1      -2.652  -2.587   1.560  1.00  0.00    -0.324 OA
HETATM   27  C21 UNL     1      -3.546  -3.504   0.970  1.00  0.00     0.182 C 
ENDBRANCH  21  26
BRANCH  20  28
HETATM   28  O7  UNL     1      -0.990  -4.205   0.025  1.00  0.00    -0.326 OA
HETATM   29  C22 UNL     1       0.036  -5.023  -0.487  1.00  0.00     0.181 C 
ENDBRANCH  20  28
TORSDOF 3
