REMARK  9 active torsions:
REMARK  status: ('A' for Active; 'I' for Inactive)
REMARK    1  A    between atoms: C1_1  and  C23_29 
REMARK    2  A    between atoms: C2_2  and  C15_19 
REMARK    3  A    between atoms: C4_5  and  C5_6 
REMARK    4  A    between atoms: C5_6  and  C6_7 
REMARK    5  A    between atoms: C5_6  and  O4_17 
REMARK    6  A    between atoms: C8_9  and  O3_15 
REMARK    7  A    between atoms: C9_10  and  O2_13 
REMARK    8  A    between atoms: C18_22  and  O6_27 
REMARK    9  A    between atoms: C19_23  and  O5_25 
ROOT
HETATM    1  C1  UNL     1       0.409  -1.163   0.501  1.00  0.00     0.070 C 
HETATM    2  C2  UNL     1       1.059  -2.407  -0.140  1.00  0.00     0.140 C 
HETATM    3  O1  UNL     1       2.463  -2.276  -0.068  1.00  0.00    -0.352 OA
HETATM    4  C3  UNL     1       2.757  -1.170   0.737  1.00  0.00     0.145 C 
HETATM    5  C4  UNL     1       1.605  -0.187   0.547  1.00  0.00     0.066 C 
ENDROOT
BRANCH   5   6
HETATM    6  C5  UNL     1       1.648   0.942   1.586  1.00  0.00     0.140 C 
BRANCH   6   7
HETATM    7  C6  UNL     1       0.331   1.632   1.881  1.00  0.00     0.007 A 
HETATM    8  C7  UNL     1      -0.029   1.886   3.152  1.00  0.00     0.024 A 
HETATM    9  C8  UNL     1      -1.218   2.416   3.499  1.00  0.00     0.116 A 
HETATM   10  C9  UNL     1      -2.072   2.751   2.504  1.00  0.00     0.116 A 
HETATM   11  C10 UNL     1      -1.734   2.462   1.234  1.00  0.00     0.026 A 
HETATM   12  C11 UNL     1      -0.549   1.929   0.913  1.00  0.00     0.000 A 
BRANCH   9  13
HETATM   13  O3  UNL     1      -1.612   2.650   4.798  1.00  0.00    -0.326 OA
HETATM   14  C13 UNL     1      -0.751   2.295   5.855  1.00  0.00     0.181 C 
ENDBRANCH   9  13
BRANCH  10  15
HETATM   15  O2  UNL     1      -3.323   3.243   2.785  1.00  0.00    -0.326 OA
HETATM   16  C12 UNL     1      -3.367   4.644   2.928  1.00  0.00     0.181 C 
ENDBRANCH  10  15
ENDBRANCH   6   7
BRANCH   6  17
HETATM   17  O4  UNL     1       2.717   1.837   1.351  1.00  0.00    -0.350 OA
HETATM   18  C14 UNL     1       2.459   2.826   0.378  1.00  0.00     0.175 C 
ENDBRANCH   6  17
ENDBRANCH   5   6
BRANCH   1  19
HETATM   19  C23 UNL     1      -0.275  -1.475   1.840  1.00  0.00     0.185 C 
HETATM   20  O7  UNL     1      -1.466  -0.722   2.001  1.00  0.00    -0.221 OA
ENDBRANCH   1  19
BRANCH   2  21
HETATM   21  C15 UNL     1       0.606  -2.617  -1.578  1.00  0.00     0.007 A 
HETATM   22  C16 UNL     1      -0.443  -3.404  -1.861  1.00  0.00     0.000 A 
HETATM   23  C17 UNL     1      -0.807  -3.627  -3.132  1.00  0.00     0.026 A 
HETATM   24  C18 UNL     1      -0.163  -3.067  -4.176  1.00  0.00     0.116 A 
HETATM   25  C19 UNL     1       0.849  -2.212  -3.898  1.00  0.00     0.116 A 
HETATM   26  C20 UNL     1       1.230  -2.040  -2.618  1.00  0.00     0.024 A 
BRANCH  24  27
HETATM   27  O6  UNL     1      -0.485  -3.282  -5.497  1.00  0.00    -0.326 OA
HETATM   28  C22 UNL     1      -1.548  -4.150  -5.812  1.00  0.00     0.181 C 
ENDBRANCH  24  27
BRANCH  25  29
HETATM   29  O5  UNL     1       1.584  -1.641  -4.909  1.00  0.00    -0.326 OA
HETATM   30  C21 UNL     1       1.113  -0.373  -5.307  1.00  0.00     0.181 C 
ENDBRANCH  25  29
ENDBRANCH   2  21
TORSDOF 9
