REMARK  5 active torsions:
REMARK  status: ('A' for Active; 'I' for Inactive)
REMARK    1  A    between atoms: C3_3  and  O9_40 
REMARK    2  A    between atoms: C11_11  and  O8_38 
REMARK    3  A    between atoms: C14_14  and  C15_15 
REMARK    4  A    between atoms: C18_18  and  O3_23 
REMARK    5  A    between atoms: C28_31  and  O4_33 
ROOT
HETATM    1  C1  UNL     1       5.486  -0.355   1.468  1.00  0.00     0.029 A 
HETATM    2  C2  UNL     1       6.430  -1.255   1.166  1.00  0.00     0.153 A 
HETATM    3  C3  UNL     1       6.085  -2.321   0.423  1.00  0.00     0.119 A 
HETATM    4  C4  UNL     1       4.789  -2.423   0.060  1.00  0.00     0.026 A 
HETATM    5  C5  UNL     1       3.788  -1.568   0.368  1.00  0.00     0.004 A 
HETATM    6  C6  UNL     1       4.210  -0.493   1.070  1.00  0.00     0.002 A 
HETATM    7  C7  UNL     1       3.352   0.481   1.396  1.00  0.00     0.000 C 
HETATM    8  C8  UNL     1       2.097   0.419   0.950  1.00  0.00     0.000 C 
HETATM    9  C9  UNL     1       1.658  -0.614   0.206  1.00  0.00     0.004 C 
HETATM   10  C10 UNL     1       2.474  -1.683   0.006  1.00  0.00     0.025 C 
HETATM   11  C11 UNL     1       1.890  -2.795  -0.520  1.00  0.00     0.121 C 
HETATM   12  C12 UNL     1       0.621  -2.743  -0.977  1.00  0.00     0.178 C 
HETATM   13  C13 UNL     1      -0.134  -1.643  -0.861  1.00  0.00     0.158 C 
HETATM   14  C14 UNL     1       0.383  -0.561  -0.249  1.00  0.00     0.030 C 
HETATM   15  O6  UNL     1      -1.375  -1.652  -1.431  1.00  0.00    -0.188 OA
HETATM   16  O7  UNL     1       0.074  -3.829  -1.595  1.00  0.00    -0.186 OA
HETATM   17  O10 UNL     1       7.715  -1.064   1.577  1.00  0.00    -0.188 OA
ENDROOT
BRANCH  14  18
HETATM   18  C15 UNL     1      -0.386   0.557  -0.248  1.00  0.00     0.030 C 
HETATM   19  C16 UNL     1      -1.662   0.609   0.203  1.00  0.00     0.004 C 
HETATM   20  C17 UNL     1      -2.477   1.679   0.006  1.00  0.00     0.025 C 
HETATM   21  C25 UNL     1      -2.104  -0.428   0.940  1.00  0.00     0.000 C 
HETATM   22  C18 UNL     1      -1.890   2.793  -0.516  1.00  0.00     0.121 C 
HETATM   23  C22 UNL     1      -3.791   1.565   0.368  1.00  0.00     0.004 A 
HETATM   24  C19 UNL     1      -0.620   2.741  -0.969  1.00  0.00     0.178 C 
HETATM   25  C20 UNL     1       0.134   1.640  -0.854  1.00  0.00     0.158 C 
HETATM   26  O2  UNL     1      -0.071   3.827  -1.585  1.00  0.00    -0.186 OA
HETATM   27  O1  UNL     1       1.377   1.650  -1.420  1.00  0.00    -0.188 OA
HETATM   28  C23 UNL     1      -4.216   0.487   1.061  1.00  0.00     0.002 A 
HETATM   29  C29 UNL     1      -4.790   2.426   0.067  1.00  0.00     0.026 A 
HETATM   30  C24 UNL     1      -3.361  -0.492   1.382  1.00  0.00     0.000 C 
HETATM   31  C26 UNL     1      -5.492   0.347   1.458  1.00  0.00     0.029 A 
HETATM   32  C27 UNL     1      -6.435   1.250   1.162  1.00  0.00     0.153 A 
HETATM   33  C28 UNL     1      -6.087   2.322   0.427  1.00  0.00     0.119 A 
HETATM   34  O5  UNL     1      -7.720   1.059   1.570  1.00  0.00    -0.188 OA
BRANCH  22  35
HETATM   35  O3  UNL     1      -2.515   3.997  -0.734  1.00  0.00    -0.326 OA
HETATM   36  C21 UNL     1      -2.577   4.822   0.410  1.00  0.00     0.181 C 
ENDBRANCH  22  35
BRANCH  33  37
HETATM   37  O4  UNL     1      -7.079   3.223   0.107  1.00  0.00    -0.326 OA
HETATM   38  C30 UNL     1      -6.753   4.409  -0.582  1.00  0.00     0.181 C 
ENDBRANCH  33  37
ENDBRANCH  14  18
BRANCH  11  39
HETATM   39  O8  UNL     1       2.517  -3.998  -0.738  1.00  0.00    -0.326 OA
HETATM   40  C31 UNL     1       2.582  -4.822   0.407  1.00  0.00     0.181 C 
ENDBRANCH  11  39
BRANCH   3  41
HETATM   41  O9  UNL     1       7.079  -3.216   0.094  1.00  0.00    -0.326 OA
HETATM   42  C32 UNL     1       6.759  -4.387  -0.622  1.00  0.00     0.181 C 
ENDBRANCH   3  41
TORSDOF 5
