REMARK  5 active torsions:
REMARK  status: ('A' for Active; 'I' for Inactive)
REMARK    1  A    between atoms: C4_4  and  C19_22 
REMARK    2  A    between atoms: C9_9  and  C15_16 
REMARK    3  A    between atoms: C15_16  and  O3_18 
REMARK    4  A    between atoms: C22_25  and  C29_33 
REMARK    5  A    between atoms: C29_33  and  O6_35 
ROOT
HETATM    1  C1  UNL     1       1.273   2.999   0.961  1.00  0.00     0.022 C 
HETATM    2  C2  UNL     1      -0.232   3.197   0.760  1.00  0.00     0.005 C 
HETATM    3  C3  UNL     1      -0.994   2.246   1.680  1.00  0.00     0.009 C 
HETATM    4  C4  UNL     1      -0.646   0.787   1.345  1.00  0.00     0.043 C 
HETATM    5  C5  UNL     1       0.858   0.557   1.293  1.00  0.00     0.009 C 
HETATM    6  C6  UNL     1       1.739   1.566   1.140  1.00  0.00    -0.045 C 
HETATM    7  C7  UNL     1       3.240   1.351   1.007  1.00  0.00     0.019 C 
HETATM    8  C8  UNL     1       3.722   0.036   1.677  1.00  0.00     0.018 C 
HETATM    9  C9  UNL     1       2.735  -1.136   1.405  1.00  0.00     0.133 C 
HETATM   10  C10 UNL     1       1.267  -0.736   1.368  1.00  0.00     0.177 C 
HETATM   11  O1  UNL     1       0.457  -1.635   1.414  1.00  0.00    -0.291 OA
HETATM   12  C11 UNL     1       3.070  -1.501  -0.075  1.00  0.00     0.016 C 
HETATM   13  C12 UNL     1       4.587  -1.304  -0.228  1.00  0.00     0.001 C 
HETATM   14  C13 UNL     1       5.017  -0.464   0.985  1.00  0.00     0.001 C 
HETATM   15  C14 UNL     1       2.572  -2.846  -0.627  1.00  0.00     0.001 C 
HETATM   16  C17 UNL     1       4.020   0.294   3.170  1.00  0.00     0.001 C 
HETATM   17  C18 UNL     1       4.075   2.581   1.431  1.00  0.00     0.004 C 
ENDROOT
BRANCH   4  18
HETATM   18  C19 UNL     1      -1.342   0.332   0.067  1.00  0.00    -0.038 C 
HETATM   19  C20 UNL     1      -2.673  -0.404   0.135  1.00  0.00     0.020 C 
HETATM   20  C21 UNL     1      -3.551  -0.112  -1.115  1.00  0.00     0.018 C 
HETATM   21  C32 UNL     1      -3.425  -0.264   1.476  1.00  0.00     0.004 C 
HETATM   22  C22 UNL     1      -2.725  -0.200  -2.439  1.00  0.00     0.133 C 
HETATM   23  C27 UNL     1      -4.617  -1.223  -1.317  1.00  0.00     0.001 C 
HETATM   24  C31 UNL     1      -4.281   1.230  -0.885  1.00  0.00     0.001 C 
HETATM   25  C23 UNL     1      -1.263   0.214  -2.320  1.00  0.00     0.181 C 
HETATM   26  C25 UNL     1      -2.667  -1.736  -2.697  1.00  0.00     0.016 C 
HETATM   27  C24 UNL     1      -0.726   0.510  -1.113  1.00  0.00     0.030 C 
HETATM   28  O4  UNL     1      -0.601   0.343  -3.326  1.00  0.00    -0.291 OA
HETATM   29  C26 UNL     1      -4.025  -2.293  -2.245  1.00  0.00     0.001 C 
HETATM   30  C28 UNL     1      -2.257  -2.228  -4.094  1.00  0.00     0.001 C 
BRANCH  22  31
HETATM   31  C29 UNL     1      -3.493   0.504  -3.584  1.00  0.00     0.278 C 
HETATM   32  O5  UNL     1      -4.369  -0.085  -4.183  1.00  0.00    -0.264 OA
BRANCH  31  33
HETATM   33  O6  UNL     1      -3.215   1.800  -3.927  1.00  0.00    -0.299 OA
HETATM   34  C30 UNL     1      -2.324   2.669  -3.271  1.00  0.00     0.184 C 
ENDBRANCH  31  33
ENDBRANCH  22  31
ENDBRANCH   4  18
BRANCH   9  35
HETATM   35  C15 UNL     1       3.055  -2.338   2.328  1.00  0.00     0.278 C 
HETATM   36  O2  UNL     1       3.923  -3.129   2.021  1.00  0.00    -0.264 OA
BRANCH  35  37
HETATM   37  O3  UNL     1       2.382  -2.522   3.506  1.00  0.00    -0.299 OA
HETATM   38  C16 UNL     1       1.427  -1.660   4.075  1.00  0.00     0.184 C 
ENDBRANCH  35  37
ENDBRANCH   9  35
TORSDOF 5
