REMARK  5 active torsions:
REMARK  status: ('A' for Active; 'I' for Inactive)
REMARK    1  A    between atoms: C2_2  and  C19_23 
REMARK    2  A    between atoms: C9_10  and  C15_17 
REMARK    3  A    between atoms: C15_17  and  O3_18 
REMARK    4  A    between atoms: C22_26  and  C29_34 
REMARK    5  A    between atoms: C29_34  and  O7_36 
ROOT
HETATM    1  C1  UNL     1      -1.790   2.398   0.575  1.00  0.00     0.011 C 
HETATM    2  C2  UNL     1      -1.182   1.013   0.852  1.00  0.00     0.043 C 
HETATM    3  C3  UNL     1       0.322   1.028   1.099  1.00  0.00     0.011 C 
HETATM    4  C4  UNL     1       1.046   2.165   1.087  1.00  0.00    -0.016 C 
HETATM    5  C5  UNL     1       0.371   3.521   1.035  1.00  0.00     0.170 C 
HETATM    6  C6  UNL     1      -1.100   3.449   1.435  1.00  0.00     0.038 C 
HETATM    7  O1  UNL     1       0.965   4.436   1.941  1.00  0.00    -0.219 OA
HETATM    8  C7  UNL     1       2.556   2.069   0.939  1.00  0.00     0.021 C 
HETATM    9  C8  UNL     1       3.095   1.076   1.993  1.00  0.00     0.019 C 
HETATM   10  C9  UNL     1       2.388  -0.295   1.785  1.00  0.00     0.133 C 
HETATM   11  C10 UNL     1       0.930  -0.171   1.311  1.00  0.00     0.177 C 
HETATM   12  O2  UNL     1       0.299  -1.199   1.208  1.00  0.00    -0.291 OA
HETATM   13  C11 UNL     1       3.203  -0.989   0.667  1.00  0.00     0.016 C 
HETATM   14  C12 UNL     1       4.645  -0.476   0.817  1.00  0.00     0.001 C 
HETATM   15  C13 UNL     1       4.584   0.724   1.774  1.00  0.00     0.001 C 
HETATM   16  C14 UNL     1       3.111  -2.516   0.530  1.00  0.00     0.001 C 
HETATM   17  C17 UNL     1       2.892   1.686   3.397  1.00  0.00     0.001 C 
HETATM   18  C18 UNL     1       3.333   3.391   0.795  1.00  0.00     0.004 C 
ENDROOT
BRANCH   2  19
HETATM   19  C19 UNL     1      -1.575   0.142  -0.335  1.00  0.00    -0.038 C 
HETATM   20  C20 UNL     1      -2.684  -0.891  -0.222  1.00  0.00     0.020 C 
HETATM   21  C21 UNL     1      -3.424  -1.067  -1.578  1.00  0.00     0.018 C 
HETATM   22  C32 UNL     1      -3.625  -0.683   0.982  1.00  0.00     0.004 C 
HETATM   23  C22 UNL     1      -2.426  -1.177  -2.777  1.00  0.00     0.133 C 
HETATM   24  C27 UNL     1      -4.145  -2.439  -1.636  1.00  0.00     0.001 C 
HETATM   25  C31 UNL     1      -4.482   0.050  -1.705  1.00  0.00     0.001 C 
HETATM   26  C23 UNL     1      -1.158  -0.343  -2.637  1.00  0.00     0.181 C 
HETATM   27  C25 UNL     1      -1.936  -2.651  -2.668  1.00  0.00     0.016 C 
HETATM   28  C24 UNL     1      -0.882   0.293  -1.475  1.00  0.00     0.030 C 
HETATM   29  O5  UNL     1      -0.433  -0.201  -3.596  1.00  0.00    -0.291 OA
HETATM   30  C26 UNL     1      -3.142  -3.468  -2.177  1.00  0.00     0.001 C 
HETATM   31  C28 UNL     1      -1.239  -3.281  -3.885  1.00  0.00     0.001 C 
BRANCH  23  32
HETATM   32  C29 UNL     1      -3.182  -0.969  -4.113  1.00  0.00     0.278 C 
HETATM   33  O6  UNL     1      -3.770  -1.895  -4.633  1.00  0.00    -0.264 OA
BRANCH  32  34
HETATM   34  O7  UNL     1      -3.215   0.257  -4.721  1.00  0.00    -0.299 OA
HETATM   35  C30 UNL     1      -2.693   1.461  -4.215  1.00  0.00     0.184 C 
ENDBRANCH  32  34
ENDBRANCH  23  32
ENDBRANCH   2  19
BRANCH  10  36
HETATM   36  C15 UNL     1       2.357  -1.054   3.124  1.00  0.00     0.278 C 
HETATM   37  O4  UNL     1       1.392  -1.065   3.856  1.00  0.00    -0.264 OA
BRANCH  36  38
HETATM   38  O3  UNL     1       3.552  -1.614   3.447  1.00  0.00    -0.299 OA
HETATM   39  C16 UNL     1       3.643  -2.213   4.718  1.00  0.00     0.184 C 
ENDBRANCH  36  38
ENDBRANCH  10  36
TORSDOF 5
