REMARK  6 active torsions:
REMARK  status: ('A' for Active; 'I' for Inactive)
REMARK    1  A    between atoms: C1_1  and  O4_30 
REMARK    2  A    between atoms: C6_6  and  C7_7 
REMARK    3  A    between atoms: C7_7  and  C8_8 
REMARK    4  A    between atoms: C18_20  and  C22_25 
REMARK    5  A    between atoms: C19_21  and  O3_23 
REMARK    6  A    between atoms: C22_25  and  C23_26 
ROOT
HETATM    1  C1  UNL     1      -4.287   0.354   0.653  1.00  0.00     0.092 A 
HETATM    2  C2  UNL     1      -4.255  -0.990   0.674  1.00  0.00     0.024 A 
HETATM    3  C3  UNL     1      -3.113  -1.659   0.869  1.00  0.00     0.002 A 
HETATM    4  C4  UNL     1      -1.970  -0.993   1.090  1.00  0.00     0.028 A 
HETATM    5  C5  UNL     1      -1.981   0.355   1.166  1.00  0.00     0.090 A 
HETATM    6  C6  UNL     1      -3.146   1.016   0.956  1.00  0.00     0.026 A 
HETATM    7  O1  UNL     1      -0.821   1.055   1.388  1.00  0.00    -0.331 OA
HETATM    8  C12 UNL     1       0.342   0.462   0.885  1.00  0.00     0.156 C 
HETATM    9  C13 UNL     1       0.543  -0.907   1.515  1.00  0.00     0.086 C 
HETATM   10  C14 UNL     1      -0.704  -1.784   1.314  1.00  0.00     0.152 C 
HETATM   11  O2  UNL     1      -0.388  -2.683   0.247  1.00  0.00    -0.329 OA
HETATM   12  C15 UNL     1       0.818  -2.664   0.003  1.00  0.00     0.092 A 
HETATM   13  C16 UNL     1       1.481  -1.730   0.684  1.00  0.00     0.005 A 
HETATM   14  C17 UNL     1       2.799  -1.585   0.524  1.00  0.00    -0.004 A 
HETATM   15  C18 UNL     1       3.456  -2.394  -0.330  1.00  0.00     0.004 A 
HETATM   16  C19 UNL     1       2.801  -3.345  -1.043  1.00  0.00     0.092 A 
HETATM   17  C20 UNL     1       1.467  -3.458  -0.858  1.00  0.00     0.048 A 
ENDROOT
BRANCH   6  18
HETATM   18  C7  UNL     1      -3.155   2.541   1.006  1.00  0.00     0.056 C 
BRANCH  18  19
HETATM   19  C8  UNL     1      -4.277   3.138   1.817  1.00  0.00    -0.030 C 
HETATM   20  C9  UNL     1      -4.944   4.273   1.539  1.00  0.00    -0.048 C 
HETATM   21  C10 UNL     1      -6.075   4.751   2.420  1.00  0.00     0.026 C 
HETATM   22  C11 UNL     1      -4.660   5.170   0.357  1.00  0.00     0.026 C 
ENDBRANCH  18  19
ENDBRANCH   6  18
BRANCH   1  23
HETATM   23  O4  UNL     1      -5.487   0.994   0.469  1.00  0.00    -0.328 OA
HETATM   24  C27 UNL     1      -5.838   1.175  -0.884  1.00  0.00     0.181 C 
ENDBRANCH   1  23
BRANCH  15  25
HETATM   25  C22 UNL     1       4.952  -2.181  -0.489  1.00  0.00     0.054 C 
BRANCH  25  26
HETATM   26  C23 UNL     1       5.239  -0.974  -1.347  1.00  0.00    -0.030 C 
HETATM   27  C24 UNL     1       6.442  -0.390  -1.493  1.00  0.00    -0.048 C 
HETATM   28  C25 UNL     1       6.624   0.825  -2.373  1.00  0.00     0.026 C 
HETATM   29  C26 UNL     1       7.702  -0.873  -0.816  1.00  0.00     0.026 C 
ENDBRANCH  25  26
ENDBRANCH  15  25
BRANCH  16  30
HETATM   30  O3  UNL     1       3.519  -4.123  -1.922  1.00  0.00    -0.328 OA
HETATM   31  C21 UNL     1       2.838  -5.045  -2.742  1.00  0.00     0.181 C 
ENDBRANCH  16  30
TORSDOF 6
