REMARK  1 active torsions:
REMARK  status: ('A' for Active; 'I' for Inactive)
REMARK    1  A    between atoms: C12_13  and  C14_17 
ROOT
HETATM    1  C1  UNL     1      -3.380  -1.039  -0.996  1.00  0.00    -0.030 C 
HETATM    2  C2  UNL     1      -3.340  -2.218  -0.362  1.00  0.00    -0.021 C 
HETATM    3  C3  UNL     1      -2.104  -2.775   0.287  1.00  0.00     0.110 C 
HETATM    4  C4  UNL     1      -0.821  -1.966   0.035  1.00  0.00     0.044 C 
HETATM    5  C5  UNL     1      -1.070  -0.452  -0.122  1.00  0.00     0.008 C 
HETATM    6  C6  UNL     1      -2.183  -0.143  -1.144  1.00  0.00     0.026 C 
HETATM    7  C7  UNL     1       0.232   0.359  -0.286  1.00  0.00     0.015 A 
HETATM    8  C8  UNL     1       1.495  -0.162   0.372  1.00  0.00     0.109 A 
HETATM    9  C9  UNL     1       1.494  -1.529   1.029  1.00  0.00     0.161 C 
HETATM   10  C10 UNL     1       0.124  -2.163   1.244  1.00  0.00     0.037 C 
HETATM   11  O1  UNL     1       2.181  -1.444   2.267  1.00  0.00    -0.223 OA
HETATM   12  C11 UNL     1       0.756   0.982   1.003  1.00  0.00     0.044 A 
HETATM   13  C12 UNL     1       1.788   2.097   1.001  1.00  0.00     0.149 A 
HETATM   14  O2  UNL     1       2.920   1.641   0.279  1.00  0.00    -0.300 OA
HETATM   15  C13 UNL     1       2.791   0.334  -0.077  1.00  0.00     0.274 A 
HETATM   16  O3  UNL     1       3.635  -0.325  -0.643  1.00  0.00    -0.264 OA
HETATM   17  C18 UNL     1       0.400   1.091  -1.612  1.00  0.00     0.001 C 
HETATM   18  C19 UNL     1      -0.298  -2.655  -1.226  1.00  0.00     0.153 C 
HETATM   19  O5  UNL     1      -0.726  -3.989  -1.165  1.00  0.00    -0.301 OA
HETATM   20  C20 UNL     1      -1.765  -4.132  -0.304  1.00  0.00     0.276 C 
HETATM   21  O6  UNL     1      -2.322  -5.177  -0.052  1.00  0.00    -0.264 OA
ENDROOT
BRANCH  13  22
HETATM   22  C14 UNL     1       1.238   3.404   0.512  1.00  0.00     0.032 A 
HETATM   23  C15 UNL     1       0.229   4.106   1.049  1.00  0.00     0.027 A 
HETATM   24  C16 UNL     1       0.124   5.182   0.260  1.00  0.00     0.122 A 
HETATM   25  O4  UNL     1       0.951   5.164  -0.651  1.00  0.00    -0.303 OA
HETATM   26  C17 UNL     1       1.625   4.141  -0.537  1.00  0.00     0.121 A 
ENDBRANCH  13  22
TORSDOF 1
