REMARK  4 active torsions:
REMARK  status: ('A' for Active; 'I' for Inactive)
REMARK    1  A    between atoms: C11_11  and  O3_18 
REMARK    2  A    between atoms: C14_14  and  O1_15 
REMARK    3  A    between atoms: O3_18  and  C16_19 
REMARK    4  A    between atoms: C27_30  and  O5_34 
ROOT
HETATM    1  C1  UNL     1      -2.422  -5.447   0.627  1.00  0.00     0.027 A 
HETATM    2  C2  UNL     1      -1.518  -5.516   1.614  1.00  0.00     0.131 A 
HETATM    3  C3  UNL     1      -1.214  -4.360   2.221  1.00  0.00     0.023 A 
HETATM    4  C4  UNL     1      -1.780  -3.191   1.872  1.00  0.00    -0.020 A 
HETATM    5  C5  UNL     1      -2.707  -3.108   0.890  1.00  0.00    -0.002 A 
HETATM    6  C6  UNL     1      -2.989  -4.281   0.284  1.00  0.00     0.002 A 
HETATM    7  C7  UNL     1      -3.248  -1.912   0.523  1.00  0.00     0.020 A 
HETATM    8  C8  UNL     1      -2.568  -0.771   0.808  1.00  0.00     0.005 A 
HETATM    9  C9  UNL     1      -1.271  -0.847   1.591  1.00  0.00     0.033 C 
HETATM   10  C10 UNL     1      -1.382  -1.954   2.628  1.00  0.00     0.031 C 
HETATM   11  C11 UNL     1      -2.977   0.446   0.380  1.00  0.00     0.121 A 
HETATM   12  C12 UNL     1      -4.140   0.532  -0.286  1.00  0.00     0.155 A 
HETATM   13  C13 UNL     1      -4.844  -0.584  -0.498  1.00  0.00     0.054 A 
HETATM   14  C14 UNL     1      -4.436  -1.813  -0.133  1.00  0.00     0.096 A 
HETATM   15  O2  UNL     1      -4.601   1.742  -0.707  1.00  0.00    -0.188 OA
HETATM   16  O6  UNL     1      -0.931  -6.693   1.957  1.00  0.00    -0.190 OA
ENDROOT
BRANCH  11  17
HETATM   17  O3  UNL     1      -2.292   1.615   0.607  1.00  0.00    -0.305 OA
BRANCH  17  18
HETATM   18  C16 UNL     1      -1.015   1.732   0.124  1.00  0.00     0.100 A 
HETATM   19  C17 UNL     1      -0.176   2.630   0.663  1.00  0.00     0.020 A 
HETATM   20  C18 UNL     1       1.103   2.776   0.275  1.00  0.00    -0.020 A 
HETATM   21  C19 UNL     1       1.651   2.000  -0.689  1.00  0.00    -0.002 A 
HETATM   22  C25 UNL     1       1.911   3.860   0.940  1.00  0.00     0.031 C 
HETATM   23  C20 UNL     1       0.780   1.141  -1.262  1.00  0.00     0.002 A 
HETATM   24  C22 UNL     1       2.972   2.100  -1.006  1.00  0.00     0.021 A 
HETATM   25  C21 UNL     1      -0.503   1.014  -0.888  1.00  0.00     0.025 A 
HETATM   26  C23 UNL     1       3.807   2.742  -0.153  1.00  0.00    -0.018 A 
HETATM   27  C29 UNL     1       3.553   1.573  -2.114  1.00  0.00     0.133 A 
HETATM   28  C24 UNL     1       3.312   3.314   1.154  1.00  0.00     0.031 C 
HETATM   29  C26 UNL     1       5.127   2.852  -0.387  1.00  0.00     0.020 A 
HETATM   30  C27 UNL     1       5.716   2.348  -1.482  1.00  0.00     0.096 A 
HETATM   31  C28 UNL     1       4.875   1.718  -2.315  1.00  0.00     0.051 A 
HETATM   32  O4  UNL     1       2.884   0.920  -3.104  1.00  0.00    -0.190 OA
BRANCH  30  33
HETATM   33  O5  UNL     1       7.054   2.413  -1.785  1.00  0.00    -0.328 OA
HETATM   34  C30 UNL     1       7.926   3.025  -0.862  1.00  0.00     0.181 C 
ENDBRANCH  30  33
ENDBRANCH  17  18
ENDBRANCH  11  17
BRANCH  14  35
HETATM   35  O1  UNL     1      -5.251  -2.905  -0.329  1.00  0.00    -0.328 OA
HETATM   36  C15 UNL     1      -6.648  -2.724  -0.403  1.00  0.00     0.181 C 
ENDBRANCH  14  35
TORSDOF 4
