REMARK  5 active torsions:
REMARK  status: ('A' for Active; 'I' for Inactive)
REMARK    1  A    between atoms: C7_7  and  O2_12 
REMARK    2  A    between atoms: C17_20  and  C21_26 
REMARK    3  A    between atoms: C18_21  and  C19_22 
REMARK    4  A    between atoms: C19_22  and  O4_23 
REMARK    5  A    between atoms: C23_28  and  O7_33 
ROOT
HETATM    1  C1  UNL     1      -4.632  -0.497   0.329  1.00  0.00    -0.018 A 
HETATM    2  C2  UNL     1      -4.675  -2.002   0.452  1.00  0.00     0.031 C 
HETATM    3  C3  UNL     1      -3.499  -2.578  -0.318  1.00  0.00     0.031 C 
HETATM    4  C4  UNL     1      -2.265  -1.853   0.149  1.00  0.00    -0.020 A 
HETATM    5  C5  UNL     1      -2.303  -0.528   0.420  1.00  0.00    -0.003 A 
HETATM    6  C6  UNL     1      -3.462   0.189   0.338  1.00  0.00     0.018 A 
HETATM    7  C7  UNL     1      -3.530   1.551   0.274  1.00  0.00     0.096 A 
HETATM    8  C8  UNL     1      -4.747   2.127   0.186  1.00  0.00     0.051 A 
HETATM    9  C9  UNL     1      -5.906   1.457   0.184  1.00  0.00     0.133 A 
HETATM   10  C10 UNL     1      -5.819   0.126   0.258  1.00  0.00     0.023 A 
HETATM   11  O1  UNL     1      -7.109   2.087   0.105  1.00  0.00    -0.190 OA
HETATM   12  C12 UNL     1      -1.105  -0.019   0.775  1.00  0.00    -0.002 A 
HETATM   13  C13 UNL     1       0.051  -0.703   0.835  1.00  0.00     0.010 A 
HETATM   14  C14 UNL     1       0.057  -2.024   0.583  1.00  0.00     0.090 A 
HETATM   15  C15 UNL     1      -1.126  -2.561   0.248  1.00  0.00     0.020 A 
HETATM   16  O3  UNL     1       1.171  -2.818   0.671  1.00  0.00    -0.331 OA
HETATM   17  C16 UNL     1       2.262  -2.280   1.366  1.00  0.00     0.154 C 
HETATM   18  C17 UNL     1       2.566  -0.852   0.916  1.00  0.00     0.066 C 
HETATM   19  C18 UNL     1       1.331   0.029   1.200  1.00  0.00     0.117 C 
ENDROOT
BRANCH  18  20
HETATM   20  C21 UNL     1       3.121  -0.792  -0.505  1.00  0.00    -0.017 A 
HETATM   21  C22 UNL     1       4.395  -0.418  -0.732  1.00  0.00     0.022 A 
HETATM   22  C23 UNL     1       4.946  -0.322  -1.960  1.00  0.00     0.119 A 
HETATM   23  C24 UNL     1       4.170  -0.644  -3.017  1.00  0.00     0.153 A 
HETATM   24  C25 UNL     1       2.898  -1.020  -2.815  1.00  0.00     0.029 A 
HETATM   25  O6  UNL     1       4.655  -0.580  -4.287  1.00  0.00    -0.188 OA
HETATM   26  C26 UNL     1       2.378  -1.092  -1.583  1.00  0.00    -0.002 A 
BRANCH  22  27
HETATM   27  O7  UNL     1       6.245   0.054  -2.211  1.00  0.00    -0.326 OA
HETATM   28  C27 UNL     1       7.129   0.233  -1.129  1.00  0.00     0.181 C 
ENDBRANCH  22  27
ENDBRANCH  18  20
BRANCH  19  29
HETATM   29  C19 UNL     1       1.431   1.399   0.513  1.00  0.00     0.276 C 
HETATM   30  O5  UNL     1       1.488   1.487  -0.695  1.00  0.00    -0.264 OA
BRANCH  29  31
HETATM   31  O4  UNL     1       1.464   2.518   1.293  1.00  0.00    -0.299 OA
HETATM   32  C20 UNL     1       1.340   2.481   2.693  1.00  0.00     0.184 C 
ENDBRANCH  29  31
ENDBRANCH  19  29
BRANCH   7  33
HETATM   33  O2  UNL     1      -2.395   2.329   0.217  1.00  0.00    -0.328 OA
HETATM   34  C11 UNL     1      -2.457   3.677  -0.185  1.00  0.00     0.181 C 
ENDBRANCH   7  33
TORSDOF 5
