REMARK  2 active torsions:
REMARK  status: ('A' for Active; 'I' for Inactive)
REMARK    1  A    between atoms: C1_1  and  O6_21 
REMARK    2  A    between atoms: C7_8  and  C10_12 
ROOT
HETATM    1  C1  UNL     1      -3.718  -0.414   0.306  1.00  0.00     0.098 A 
HETATM    2  C2  UNL     1      -3.677  -1.756   0.354  1.00  0.00     0.052 A 
HETATM    3  C3  UNL     1      -2.547  -2.485   0.365  1.00  0.00     0.138 A 
HETATM    4  C4  UNL     1      -1.366  -1.826   0.320  1.00  0.00     0.083 A 
HETATM    5  C5  UNL     1      -1.345  -0.473   0.286  1.00  0.00     0.101 A 
HETATM    6  C6  UNL     1      -2.518   0.189   0.268  1.00  0.00     0.049 A 
HETATM    7  O1  UNL     1      -0.197   0.275   0.203  1.00  0.00    -0.328 OA
HETATM    8  C7  UNL     1       0.872  -0.366  -0.435  1.00  0.00     0.151 C 
HETATM    9  C8  UNL     1       1.111  -1.689   0.274  1.00  0.00     0.104 C 
HETATM   10  C9  UNL     1      -0.177  -2.495   0.331  1.00  0.00     0.180 C 
HETATM   11  O2  UNL     1      -0.058  -3.697   0.388  1.00  0.00    -0.291 OA
HETATM   12  O5  UNL     1      -2.692  -3.842   0.406  1.00  0.00    -0.190 OA
ENDROOT
BRANCH   8  13
HETATM   13  C10 UNL     1       2.106   0.519  -0.454  1.00  0.00     0.010 A 
HETATM   14  C11 UNL     1       2.736   0.801  -1.608  1.00  0.00     0.026 A 
HETATM   15  C12 UNL     1       3.827   1.583  -1.651  1.00  0.00     0.133 A 
HETATM   16  C13 UNL     1       4.286   2.083  -0.493  1.00  0.00     0.055 A 
HETATM   17  O4  UNL     1       4.453   1.863  -2.826  1.00  0.00    -0.190 OA
HETATM   18  C14 UNL     1       3.692   1.827   0.684  1.00  0.00     0.133 A 
HETATM   19  C15 UNL     1       2.600   1.044   0.680  1.00  0.00     0.026 A 
HETATM   20  O3  UNL     1       4.173   2.345   1.846  1.00  0.00    -0.190 OA
ENDBRANCH   8  13
BRANCH   1  21
HETATM   21  O6  UNL     1      -4.939   0.217   0.292  1.00  0.00    -0.328 OA
HETATM   22  C16 UNL     1      -4.978   1.625   0.257  1.00  0.00     0.181 C 
ENDBRANCH   1  21
TORSDOF 2
