REMARK  3 active torsions:
REMARK  status: ('A' for Active; 'I' for Inactive)
REMARK    1  A    between atoms: C1_1  and  O3_27 
REMARK    2  A    between atoms: C12_12  and  O2_17 
REMARK    3  A    between atoms: C13_13  and  O1_15 
ROOT
HETATM    1  C1  UNL     1      -2.648   3.213   0.774  1.00  0.00     0.094 A 
HETATM    2  C2  UNL     1      -2.555   1.870   0.765  1.00  0.00     0.024 A 
HETATM    3  C3  UNL     1      -1.407   1.159   0.751  1.00  0.00     0.002 A 
HETATM    4  C4  UNL     1      -0.250   1.859   0.738  1.00  0.00    -0.004 A 
HETATM    5  C5  UNL     1      -0.316   3.204   0.749  1.00  0.00     0.002 A 
HETATM    6  C6  UNL     1      -1.478   3.870   0.763  1.00  0.00     0.024 A 
HETATM    7  C7  UNL     1       0.930   1.206   0.717  1.00  0.00    -0.022 A 
HETATM    8  C8  UNL     1       0.968  -0.142   0.751  1.00  0.00     0.007 A 
HETATM    9  C9  UNL     1      -0.185  -0.846   0.743  1.00  0.00    -0.000 A 
HETATM   10  C10 UNL     1      -1.367  -0.197   0.739  1.00  0.00     0.002 A 
HETATM   11  C11 UNL     1      -2.466  -0.977   0.724  1.00  0.00     0.026 A 
HETATM   12  C12 UNL     1      -2.495  -2.325   0.707  1.00  0.00     0.116 A 
HETATM   13  C13 UNL     1      -1.306  -2.969   0.709  1.00  0.00     0.116 A 
HETATM   14  C14 UNL     1      -0.204  -2.192   0.725  1.00  0.00     0.026 A 
HETATM   15  C17 UNL     1       2.368  -0.744   0.823  1.00  0.00     0.276 C 
HETATM   16  N1  UNL     1       3.224  -0.271  -0.253  1.00  0.00     0.140 N 
HETATM   17  C18 UNL     1       3.043   1.147  -0.549  1.00  0.00     0.224 C 
HETATM   18  C19 UNL     1       2.290   1.876   0.583  1.00  0.00     0.059 C 
HETATM   19  C20 UNL     1       2.362   1.394  -1.911  1.00  0.00     0.034 C 
HETATM   20  C21 UNL     1       3.175   0.783  -3.063  1.00  0.00     0.004 C 
HETATM   21  C22 UNL     1       3.863  -0.517  -2.623  1.00  0.00     0.035 C 
HETATM   22  C23 UNL     1       3.120  -1.126  -1.427  1.00  0.00     0.251 C 
ENDROOT
BRANCH   1  23
HETATM   23  O3  UNL     1      -3.891   3.803   0.781  1.00  0.00    -0.328 OA
HETATM   24  C24 UNL     1      -3.977   5.206   0.702  1.00  0.00     0.181 C 
ENDBRANCH   1  23
BRANCH  12  25
HETATM   25  O2  UNL     1      -3.752  -2.896   0.689  1.00  0.00    -0.326 OA
HETATM   26  C16 UNL     1      -3.937  -4.290   0.680  1.00  0.00     0.181 C 
ENDBRANCH  12  25
BRANCH  13  27
HETATM   27  O1  UNL     1      -1.256  -4.343   0.682  1.00  0.00    -0.326 OA
HETATM   28  C15 UNL     1      -0.020  -5.018   0.635  1.00  0.00     0.181 C 
ENDBRANCH  13  27
TORSDOF 3
