REMARK  3 active torsions:
REMARK  status: ('A' for Active; 'I' for Inactive)
REMARK    1  A    between atoms: C2_2  and  O8_26 
REMARK    2  A    between atoms: C3_3  and  O3_12 
REMARK    3  A    between atoms: O3_12  and  C10_13 
ROOT
HETATM    1  O3  UNL     1      -0.908   0.852  -0.033  1.00  0.00    -0.299 OA
ENDROOT
BRANCH   1   2
HETATM    2  C3  UNL     1       0.317   1.315   0.383  1.00  0.00     0.145 A 
HETATM    3  C2  UNL     1       1.451   0.988  -0.283  1.00  0.00     0.119 A 
HETATM    4  C1  UNL     1       2.613   1.472   0.195  1.00  0.00     0.026 A 
HETATM    5  C6  UNL     1       2.659   2.267   1.271  1.00  0.00     0.004 A 
HETATM    6  C5  UNL     1       1.529   2.599   1.911  1.00  0.00     0.025 A 
HETATM    7  C4  UNL     1       0.349   2.122   1.470  1.00  0.00     0.128 A 
HETATM    8  C7  UNL     1       1.562   3.401   2.989  1.00  0.00     0.007 A 
HETATM    9  O1  UNL     1      -0.832   2.432   2.096  1.00  0.00    -0.271 OA
HETATM   10  C9  UNL     1      -0.753   3.255   3.180  1.00  0.00     0.300 A 
HETATM   11  C8  UNL     1       0.433   3.737   3.628  1.00  0.00     0.069 A 
HETATM   12  O2  UNL     1      -1.764   3.575   3.772  1.00  0.00    -0.259 OA
BRANCH   3  13
HETATM   13  O8  UNL     1       1.361   0.161  -1.380  1.00  0.00    -0.326 OA
HETATM   14  C19 UNL     1       2.540  -0.339  -1.966  1.00  0.00     0.181 C 
ENDBRANCH   3  13
ENDBRANCH   1   2
BRANCH   1  15
HETATM   15  C10 UNL     1      -1.044  -0.500  -0.223  1.00  0.00     0.148 A 
HETATM   16  C11 UNL     1      -0.657  -1.383   0.719  1.00  0.00     0.158 A 
HETATM   17  C12 UNL     1      -0.806  -2.693   0.476  1.00  0.00     0.057 A 
HETATM   18  O7  UNL     1      -0.119  -0.978   1.902  1.00  0.00    -0.188 OA
HETATM   19  C13 UNL     1      -1.325  -3.166  -0.666  1.00  0.00     0.135 A 
HETATM   20  C14 UNL     1      -1.719  -2.272  -1.595  1.00  0.00     0.051 A 
HETATM   21  O6  UNL     1      -1.439  -4.512  -0.837  1.00  0.00    -0.190 OA
HETATM   22  C15 UNL     1      -1.583  -0.946  -1.381  1.00  0.00     0.130 A 
HETATM   23  C18 UNL     1      -2.257  -2.679  -2.760  1.00  0.00     0.010 A 
HETATM   24  O4  UNL     1      -1.970  -0.009  -2.306  1.00  0.00    -0.271 OA
HETATM   25  C16 UNL     1      -2.514  -0.476  -3.463  1.00  0.00     0.300 A 
HETATM   26  C17 UNL     1      -2.656  -1.804  -3.692  1.00  0.00     0.069 A 
HETATM   27  O5  UNL     1      -2.883   0.301  -4.320  1.00  0.00    -0.259 OA
ENDBRANCH   1  15
TORSDOF 3
