REMARK  12 active torsions:
REMARK  status: ('A' for Active; 'I' for Inactive)
REMARK    1  A    between atoms: C1_1  and  O10_44 
REMARK    2  A    between atoms: C5_5  and  C7_7 
REMARK    3  A    between atoms: C8_9  and  C13_14 
REMARK    4  A    between atoms: C15_16  and  O7_38 
REMARK    5  A    between atoms: C16_17  and  O3_22 
REMARK    6  A    between atoms: C17_18  and  O2_20 
REMARK    7  A    between atoms: O3_22  and  C20_23 
REMARK    8  A    between atoms: C20_23  and  C22_25 
REMARK    9  A    between atoms: C22_25  and  C23_26 
REMARK   10  A    between atoms: C25_28  and  O6_36 
REMARK   11  A    between atoms: C26_29  and  O5_34 
REMARK   12  A    between atoms: C27_30  and  O4_32 
ROOT
HETATM    1  C13 UNL     1      -0.072  -0.726  -0.063  1.00  0.00     0.009 A 
HETATM    2  C14 UNL     1       0.661  -1.289   0.982  1.00  0.00     0.024 A 
HETATM    3  C15 UNL     1       2.007  -1.607   0.797  1.00  0.00     0.118 A 
HETATM    4  C16 UNL     1       2.619  -1.362  -0.432  1.00  0.00     0.138 A 
HETATM    5  C17 UNL     1       1.885  -0.799  -1.477  1.00  0.00     0.118 A 
HETATM    6  C18 UNL     1       0.540  -0.481  -1.292  1.00  0.00     0.024 A 
ENDROOT
BRANCH   1   7
HETATM    7  C8  UNL     1      -1.516  -0.385   0.135  1.00  0.00     0.138 C 
HETATM    8  O1  UNL     1      -2.307  -1.076  -0.794  1.00  0.00    -0.350 OA
HETATM    9  C7  UNL     1      -3.521  -0.375  -0.794  1.00  0.00     0.138 C 
HETATM   10  C10 UNL     1      -3.101   1.089  -0.794  1.00  0.00     0.034 C 
HETATM   11  C9  UNL     1      -1.740   1.082  -0.111  1.00  0.00     0.034 C 
HETATM   12  C11 UNL     1      -4.095   1.936  -0.011  1.00  0.00     0.003 C 
HETATM   13  C12 UNL     1      -1.775   1.861   1.197  1.00  0.00     0.003 C 
BRANCH   9  14
HETATM   14  C5  UNL     1      -4.322  -0.699  -2.017  1.00  0.00     0.009 A 
HETATM   15  C4  UNL     1      -5.609  -1.219  -1.890  1.00  0.00     0.025 A 
HETATM   16  C3  UNL     1      -6.355  -1.520  -3.029  1.00  0.00     0.124 A 
HETATM   17  C2  UNL     1      -5.813  -1.302  -4.296  1.00  0.00     0.145 A 
HETATM   18  O8  UNL     1      -7.606  -2.026  -2.906  1.00  0.00    -0.301 OA
HETATM   19  C1  UNL     1      -4.526  -0.781  -4.423  1.00  0.00     0.118 A 
HETATM   20  O9  UNL     1      -6.538  -1.595  -5.403  1.00  0.00    -0.299 OA
HETATM   21  C6  UNL     1      -3.780  -0.480  -3.283  1.00  0.00     0.024 A 
HETATM   22  C34 UNL     1      -7.832  -2.118  -5.275  1.00  0.00     0.149 C 
HETATM   23  C33 UNL     1      -8.396  -2.229  -4.047  1.00  0.00     0.149 C 
BRANCH  19  24
HETATM   24  O10 UNL     1      -3.999  -0.568  -5.653  1.00  0.00    -0.326 OA
HETATM   25  C35 UNL     1      -2.704  -0.045  -5.780  1.00  0.00     0.181 C 
ENDBRANCH  19  24
ENDBRANCH   9  14
ENDBRANCH   1   7
BRANCH   3  26
HETATM   26  O7  UNL     1       2.719  -2.153   1.812  1.00  0.00    -0.326 OA
HETATM   27  C32 UNL     1       2.304  -1.969   3.138  1.00  0.00     0.181 C 
ENDBRANCH   3  26
BRANCH   5  28
HETATM   28  O2  UNL     1       2.480  -0.561  -2.671  1.00  0.00    -0.326 OA
HETATM   29  C19 UNL     1       3.063   0.688  -2.927  1.00  0.00     0.181 C 
ENDBRANCH   5  28
BRANCH   4  30
HETATM   30  O3  UNL     1       3.926  -1.670  -0.612  1.00  0.00    -0.329 OA
BRANCH  30  31
HETATM   31  C20 UNL     1       4.896  -1.140   0.251  1.00  0.00     0.126 C 
HETATM   32  C21 UNL     1       6.274  -1.639  -0.166  1.00  0.00     0.033 C 
BRANCH  31  33
HETATM   33  C22 UNL     1       4.864   0.381   0.176  1.00  0.00     0.057 C 
BRANCH  33  34
HETATM   34  C23 UNL     1       4.556   0.941   1.530  1.00  0.00    -0.016 A 
HETATM   35  C24 UNL     1       4.473   2.321   1.712  1.00  0.00     0.022 A 
HETATM   36  C25 UNL     1       4.187   2.843   2.973  1.00  0.00     0.118 A 
HETATM   37  C26 UNL     1       3.983   1.985   4.053  1.00  0.00     0.138 A 
HETATM   38  C27 UNL     1       4.066   0.604   3.872  1.00  0.00     0.118 A 
HETATM   39  C28 UNL     1       4.352   0.082   2.610  1.00  0.00     0.022 A 
BRANCH  36  40
HETATM   40  O6  UNL     1       4.107   4.184   3.149  1.00  0.00    -0.326 OA
HETATM   41  C31 UNL     1       3.819   4.709   4.417  1.00  0.00     0.181 C 
ENDBRANCH  36  40
BRANCH  37  42
HETATM   42  O5  UNL     1       3.705   2.491   5.278  1.00  0.00    -0.324 OA
HETATM   43  C30 UNL     1       3.500   1.629   6.364  1.00  0.00     0.182 C 
ENDBRANCH  37  42
BRANCH  38  44
HETATM   44  O4  UNL     1       3.868  -0.230   4.921  1.00  0.00    -0.326 OA
HETATM   45  C29 UNL     1       3.951  -1.618   4.739  1.00  0.00     0.181 C 
ENDBRANCH  38  44
ENDBRANCH  33  34
ENDBRANCH  31  33
ENDBRANCH  30  31
ENDBRANCH   4  30
TORSDOF 12
