REMARK  5 active torsions:
REMARK  status: ('A' for Active; 'I' for Inactive)
REMARK    1  A    between atoms: C5_5  and  O1_11 
REMARK    2  A    between atoms: O1_11  and  C11_12 
REMARK    3  A    between atoms: C11_12  and  C12_13 
REMARK    4  A    between atoms: C13_14  and  C14_15 
REMARK    5  A    between atoms: C15_16  and  C16_17 
ROOT
HETATM    1  C11 UNL     1      -0.644  -0.622   0.135  1.00  0.00     0.296 C 
HETATM    2  O4  UNL     1       0.209   0.209  -0.093  1.00  0.00    -0.259 OA
ENDROOT
BRANCH   1   3
HETATM    3  O1  UNL     1      -1.487  -0.471   1.203  1.00  0.00    -0.301 OA
BRANCH   3   4
HETATM    4  C5  UNL     1      -1.181   0.498   2.165  1.00  0.00     0.124 C 
HETATM    5  C4  UNL     1      -1.534   0.013   3.580  1.00  0.00     0.030 C 
HETATM    6  C3  UNL     1      -2.425   1.156   4.120  1.00  0.00     0.003 C 
HETATM    7  C2  UNL     1      -3.808   0.977   3.458  1.00  0.00     0.000 C 
HETATM    8  C7  UNL     1      -1.858   2.427   3.443  1.00  0.00     0.002 C 
HETATM    9  C1  UNL     1      -3.522   1.397   2.004  1.00  0.00     0.002 C 
HETATM   10  C6  UNL     1      -2.021   1.787   2.036  1.00  0.00     0.026 C 
HETATM   11  C10 UNL     1      -1.615   2.669   0.855  1.00  0.00     0.002 C 
HETATM   12  C8  UNL     1      -0.418   2.772   3.882  1.00  0.00     0.000 C 
HETATM   13  C9  UNL     1      -2.686   3.706   3.688  1.00  0.00     0.000 C 
ENDBRANCH   3   4
ENDBRANCH   1   3
BRANCH   1  14
HETATM   14  C12 UNL     1      -0.694  -1.740  -0.642  1.00  0.00     0.068 C 
HETATM   15  C13 UNL     1       0.145  -1.967  -1.669  1.00  0.00     0.005 C 
BRANCH  15  16
HETATM   16  C14 UNL     1       0.102  -3.064  -2.444  1.00  0.00     0.000 C 
HETATM   17  C15 UNL     1       0.894  -3.412  -3.477  1.00  0.00     0.000 C 
BRANCH  17  18
HETATM   18  C16 UNL     1       2.082  -2.947  -3.928  1.00  0.00     0.002 A 
HETATM   19  C17 UNL     1       2.903  -2.123  -3.242  1.00  0.00     0.026 A 
HETATM   20  C18 UNL     1       4.066  -1.726  -3.774  1.00  0.00     0.119 A 
HETATM   21  C19 UNL     1       4.456  -2.148  -4.979  1.00  0.00     0.119 A 
HETATM   22  O3  UNL     1       4.906  -0.985  -3.272  1.00  0.00    -0.300 OA
HETATM   23  C20 UNL     1       3.690  -2.993  -5.676  1.00  0.00     0.026 A 
HETATM   24  O2  UNL     1       5.548  -1.681  -5.290  1.00  0.00    -0.300 OA
HETATM   25  C21 UNL     1       2.523  -3.384  -5.132  1.00  0.00     0.002 A 
HETATM   26  C22 UNL     1       5.976  -0.851  -4.208  1.00  0.00     0.304 A 
ENDBRANCH  17  18
ENDBRANCH  15  16
ENDBRANCH   1  14
TORSDOF 5
