REMARK  3 active torsions:
REMARK  status: ('A' for Active; 'I' for Inactive)
REMARK    1  A    between atoms: C4_4  and  O1_11 
REMARK    2  A    between atoms: O1_11  and  C11_12 
REMARK    3  A    between atoms: C12_14  and  C16_21 
ROOT
HETATM    1  C11 UNL     1       1.449   1.103  -0.916  1.00  0.00     0.270 C 
HETATM    2  O2  UNL     1       0.937   2.308  -0.392  1.00  0.00    -0.326 OA
HETATM    3  C12 UNL     1      -0.052   2.955  -1.149  1.00  0.00     0.184 C 
HETATM    4  C13 UNL     1       0.357   3.156  -2.604  1.00  0.00     0.215 C 
HETATM    5  C14 UNL     1       0.909   1.900  -3.252  1.00  0.00     0.220 C 
HETATM    6  C15 UNL     1       1.934   1.262  -2.338  1.00  0.00     0.241 C 
HETATM    7  O3  UNL     1       3.089   2.072  -2.320  1.00  0.00    -0.215 OA
HETATM    8  O4  UNL     1      -0.129   0.990  -3.522  1.00  0.00    -0.218 OA
HETATM    9  O5  UNL     1       1.357   4.150  -2.656  1.00  0.00    -0.218 OA
ENDROOT
BRANCH   1  10
HETATM   10  O1  UNL     1       0.476   0.085  -0.805  1.00  0.00    -0.332 OA
BRANCH  10  11
HETATM   11  C4  UNL     1       0.732  -0.839   0.213  1.00  0.00     0.118 C 
HETATM   12  C3  UNL     1      -0.274  -2.006   0.200  1.00  0.00     0.027 C 
HETATM   13  C2  UNL     1      -1.709  -1.438   0.199  1.00  0.00     0.002 C 
HETATM   14  C7  UNL     1      -0.131  -2.607   1.622  1.00  0.00     0.002 C 
HETATM   15  C1  UNL     1      -1.848  -0.887   1.631  1.00  0.00     0.000 C 
HETATM   16  C6  UNL     1      -0.479  -1.241   2.263  1.00  0.00     0.002 C 
HETATM   17  C5  UNL     1       0.547  -0.269   1.627  1.00  0.00     0.030 C 
HETATM   18  C10 UNL     1      -0.489  -1.189   3.790  1.00  0.00     0.000 C 
HETATM   19  C8  UNL     1       1.273  -3.152   1.956  1.00  0.00     0.000 C 
HETATM   20  C9  UNL     1      -1.114  -3.758   1.926  1.00  0.00     0.000 C 
ENDBRANCH  10  11
ENDBRANCH   1  10
BRANCH   3  21
HETATM   21  C16 UNL     1      -1.435   2.350  -0.947  1.00  0.00     0.214 C 
HETATM   22  O6  UNL     1      -2.425   3.261  -1.384  1.00  0.00    -0.218 OA
ENDBRANCH   3  21
TORSDOF 3
