REMARK  2 active torsions:
REMARK  status: ('A' for Active; 'I' for Inactive)
REMARK    1  A    between atoms: C15_15  and  C18_18 
REMARK    2  A    between atoms: C21_21  and  C23_24 
ROOT
HETATM    1  C1  UNL     1      -5.010  -1.471  -0.309  1.00  0.00     0.065 C 
HETATM    2  C2  UNL     1      -5.021  -2.865  -0.905  1.00  0.00     0.150 C 
HETATM    3  C3  UNL     1      -3.791  -3.764  -0.737  1.00  0.00     0.052 C 
HETATM    4  C4  UNL     1      -3.099  -3.534   0.642  1.00  0.00     0.011 C 
HETATM    5  C5  UNL     1      -3.032  -2.088   1.213  1.00  0.00     0.004 C 
HETATM    6  C6  UNL     1      -4.446  -1.473   1.112  1.00  0.00     0.008 C 
HETATM    7  C7  UNL     1      -1.954  -1.255   0.467  1.00  0.00     0.018 C 
HETATM    8  C8  UNL     1      -0.635  -1.996   0.358  1.00  0.00    -0.049 C 
HETATM    9  C9  UNL     1      -0.562  -3.330   0.487  1.00  0.00    -0.035 C 
HETATM   10  C10 UNL     1      -1.731  -4.228   0.778  1.00  0.00     0.026 C 
HETATM   11  C11 UNL     1       0.624  -1.160   0.215  1.00  0.00     0.015 C 
HETATM   12  C12 UNL     1       0.355   0.138  -0.601  1.00  0.00     0.003 C 
HETATM   13  C13 UNL     1      -0.667   0.993   0.181  1.00  0.00     0.001 C 
HETATM   14  C14 UNL     1      -1.746   0.194   0.952  1.00  0.00     0.004 C 
HETATM   15  C15 UNL     1       1.794   0.712  -0.745  1.00  0.00     0.003 C 
HETATM   16  C16 UNL     1       2.643  -0.566  -0.984  1.00  0.00     0.000 C 
HETATM   17  C17 UNL     1       1.790  -1.783  -0.574  1.00  0.00     0.004 C 
HETATM   18  C26 UNL     1      -0.177  -0.117  -2.036  1.00  0.00     0.000 C 
HETATM   19  C27 UNL     1       1.164  -0.956   1.658  1.00  0.00     0.004 C 
HETATM   20  C28 UNL     1      -2.680  -2.140   2.723  1.00  0.00     0.000 C 
HETATM   21  C29 UNL     1      -4.292  -5.232  -0.826  1.00  0.00     0.007 C 
HETATM   22  C30 UNL     1      -2.894  -3.529  -1.971  1.00  0.00     0.007 C 
HETATM   23  O4  UNL     1      -5.976  -3.215  -1.561  1.00  0.00    -0.296 OA
ENDROOT
BRANCH  15  24
HETATM   24  C18 UNL     1       2.108   1.817  -1.782  1.00  0.00     0.032 C 
HETATM   25  C19 UNL     1       3.603   2.182  -1.820  1.00  0.00     0.038 C 
HETATM   26  C20 UNL     1       4.021   2.940  -0.560  1.00  0.00     0.182 C 
HETATM   27  C21 UNL     1       3.104   4.135  -0.302  1.00  0.00     0.173 C 
HETATM   28  O3  UNL     1       5.353   3.359  -0.754  1.00  0.00    -0.221 OA
HETATM   29  O1  UNL     1       1.756   3.735  -0.347  1.00  0.00    -0.352 OA
HETATM   30  C22 UNL     1       1.374   3.140  -1.560  1.00  0.00     0.142 C 
BRANCH  27  31
HETATM   31  C23 UNL     1       3.322   4.866   1.036  1.00  0.00     0.154 C 
HETATM   32  C24 UNL     1       2.449   6.127   1.110  1.00  0.00     0.036 C 
HETATM   33  C25 UNL     1       4.774   5.271   1.310  1.00  0.00     0.036 C 
HETATM   34  O2  UNL     1       2.935   4.011   2.081  1.00  0.00    -0.223 OA
ENDBRANCH  27  31
ENDBRANCH  15  24
TORSDOF 2
