REMARK  6 active torsions:
REMARK  status: ('A' for Active; 'I' for Inactive)
REMARK    1  A    between atoms: C1_1  and  N2_15 
REMARK    2  A    between atoms: C3_4  and  C5_6 
REMARK    3  A    between atoms: C5_6  and  O2_7 
REMARK    4  A    between atoms: O2_7  and  C6_8 
REMARK    5  A    between atoms: C6_8  and  C7_9 
REMARK    6  A    between atoms: C11_16  and  O5_21 
ROOT
HETATM    1  C1  UNL     1      -1.883  -0.404   0.562  1.00  0.00     0.229 C 
HETATM    2  O1  UNL     1      -1.567  -1.795   0.621  1.00  0.00    -0.328 OA
HETATM    3  C2  UNL     1      -0.153  -1.935   0.559  1.00  0.00     0.169 C 
HETATM    4  C3  UNL     1       0.418  -0.557   0.704  1.00  0.00     0.015 C 
HETATM    5  C4  UNL     1      -0.581   0.327   0.713  1.00  0.00     0.023 C 
ENDROOT
BRANCH   4   6
HETATM    6  C5  UNL     1       1.893  -0.280   0.764  1.00  0.00     0.177 C 
BRANCH   6   7
HETATM    7  O2  UNL     1       2.147   1.091   0.958  1.00  0.00    -0.293 OA
BRANCH   7   8
HETATM    8  C6  UNL     1       3.421   1.593   1.009  1.00  0.00     0.314 C 
HETATM    9  O3  UNL     1       3.525   2.794   1.173  1.00  0.00    -0.257 OA
BRANCH   8  10
HETATM   10  C7  UNL     1       4.598   0.913   0.902  1.00  0.00     0.144 A 
HETATM   11  C8  UNL     1       5.812   1.492   0.961  1.00  0.00     0.026 A 
HETATM   12  C9  UNL     1       6.725   0.521   0.820  1.00  0.00     0.022 A 
HETATM   13  C10 UNL     1       6.032  -0.615   0.681  1.00  0.00     0.099 A 
HETATM   14  N1  UNL     1       4.797  -0.332   0.737  1.00  0.00    -0.239 NA
ENDBRANCH   8  10
ENDBRANCH   7   8
ENDBRANCH   6   7
ENDBRANCH   4   6
BRANCH   1  15
HETATM   15  N2  UNL     1      -2.548  -0.025  -0.678  1.00  0.00    -0.272 N 
HETATM   16  C11 UNL     1      -3.929   0.437  -0.670  1.00  0.00     0.205 C 
HETATM   17  C12 UNL     1      -3.968   1.200  -2.013  1.00  0.00     0.064 C 
HETATM   18  C13 UNL     1      -2.937   0.498  -2.929  1.00  0.00     0.093 C 
HETATM   19  C14 UNL     1      -1.959  -0.036  -1.905  1.00  0.00     0.237 C 
HETATM   20  O4  UNL     1      -0.829  -0.397  -2.128  1.00  0.00    -0.272 OA
BRANCH  16  21
HETATM   21  O5  UNL     1      -4.881  -0.603  -0.747  1.00  0.00    -0.333 OA
HETATM   22  C15 UNL     1      -5.134  -1.230   0.490  1.00  0.00     0.176 C 
ENDBRANCH  16  21
ENDBRANCH   1  15
TORSDOF 6
