REMARK  14 active torsions:
REMARK  status: ('A' for Active; 'I' for Inactive)
REMARK    1  A    between atoms: C5_5  and  C7_7 
REMARK    2  A    between atoms: C7_7  and  C8_8 
REMARK    3  A    between atoms: C9_9  and  C10_10 
REMARK    4  A    between atoms: C10_10  and  C11_11 
REMARK    5  A    between atoms: C11_11  and  C12_12 
REMARK    6  A    between atoms: C12_12  and  C13_13 
REMARK    7  A    between atoms: C13_13  and  C14_14 
REMARK    8  A    between atoms: C14_14  and  C15_15 
REMARK    9  A    between atoms: C15_15  and  C16_16 
REMARK   10  A    between atoms: C16_16  and  C17_17 
REMARK   11  A    between atoms: C18_18  and  C19_19 
REMARK   12  A    between atoms: C20_20  and  C21_21 
REMARK       I    between atoms: C21_21  and  N1_22 
REMARK   13  A    between atoms: N1_22  and  C22_23 
REMARK   14  A    between atoms: C22_23  and  C23_24 
ROOT
HETATM    1  C12 UNL     1      -1.900  -1.667   0.046  1.00  0.00     0.000 C 
ENDROOT
BRANCH   1   2
HETATM    2  C11 UNL     1      -2.175  -3.180   0.020  1.00  0.00     0.005 C 
BRANCH   2   3
HETATM    3  C10 UNL     1      -3.681  -3.488   0.058  1.00  0.00     0.026 C 
BRANCH   3   4
HETATM    4  C9  UNL     1      -3.949  -4.968  -0.058  1.00  0.00    -0.030 C 
HETATM    5  C8  UNL     1      -4.607  -5.696   0.857  1.00  0.00    -0.026 C 
BRANCH   5   6
HETATM    6  C7  UNL     1      -4.869  -7.175   0.720  1.00  0.00     0.052 C 
BRANCH   6   7
HETATM    7  C5  UNL     1      -6.331  -7.577   0.718  1.00  0.00    -0.016 A 
HETATM    8  C4  UNL     1      -6.651  -8.877   0.890  1.00  0.00    -0.002 A 
HETATM    9  C3  UNL     1      -7.924  -9.308   0.890  1.00  0.00     0.026 A 
HETATM   10  C2  UNL     1      -8.891  -8.401   0.710  1.00  0.00     0.119 A 
HETATM   11  C1  UNL     1      -8.592  -7.110   0.533  1.00  0.00     0.119 A 
HETATM   12  O2  UNL     1     -10.104  -8.591   0.676  1.00  0.00    -0.300 OA
HETATM   13  C6  UNL     1      -7.322  -6.684   0.529  1.00  0.00     0.022 A 
HETATM   14  O3  UNL     1      -9.608  -6.437   0.380  1.00  0.00    -0.300 OA
HETATM   15  C26 UNL     1     -10.726  -7.324   0.456  1.00  0.00     0.304 A 
ENDBRANCH   6   7
ENDBRANCH   5   6
ENDBRANCH   3   4
ENDBRANCH   2   3
ENDBRANCH   1   2
BRANCH   1  16
HETATM   16  C13 UNL     1      -0.398  -1.341  -0.016  1.00  0.00     0.000 C 
BRANCH  16  17
HETATM   17  C14 UNL     1      -0.146   0.176  -0.050  1.00  0.00     0.000 C 
BRANCH  17  18
HETATM   18  C15 UNL     1       1.351   0.521  -0.122  1.00  0.00     0.005 C 
BRANCH  18  19
HETATM   19  C16 UNL     1       1.585   2.040  -0.151  1.00  0.00     0.026 C 
BRANCH  19  20
HETATM   20  C17 UNL     1       3.047   2.413  -0.206  1.00  0.00    -0.026 C 
HETATM   21  C18 UNL     1       3.470   3.675  -0.390  1.00  0.00    -0.004 C 
BRANCH  21  22
HETATM   22  C19 UNL     1       4.769   4.018  -0.418  1.00  0.00     0.005 C 
HETATM   23  C20 UNL     1       5.186   5.286  -0.587  1.00  0.00     0.062 C 
BRANCH  23  24
HETATM   24  C21 UNL     1       6.500   5.631  -0.608  1.00  0.00     0.275 C 
HETATM   25  N1  UNL     1       6.711   6.970  -0.788  1.00  0.00    -0.234 NA
HETATM   26  O1  UNL     1       7.412   4.848  -0.483  1.00  0.00    -0.266 OA
BRANCH  25  27
HETATM   27  C22 UNL     1       8.057   7.545  -0.856  1.00  0.00     0.129 C 
BRANCH  27  28
HETATM   28  C23 UNL     1       7.994   9.083  -0.857  1.00  0.00     0.025 C 
HETATM   29  C24 UNL     1       7.352   9.618   0.434  1.00  0.00     0.002 C 
HETATM   30  C25 UNL     1       9.400   9.680  -1.040  1.00  0.00     0.002 C 
ENDBRANCH  27  28
ENDBRANCH  25  27
ENDBRANCH  23  24
ENDBRANCH  21  22
ENDBRANCH  19  20
ENDBRANCH  18  19
ENDBRANCH  17  18
ENDBRANCH  16  17
ENDBRANCH   1  16
TORSDOF 14
