REMARK  6 active torsions:
REMARK  status: ('A' for Active; 'I' for Inactive)
REMARK    1  A    between atoms: C2_3  and  N2_15 
REMARK    2  A    between atoms: C3_4  and  C5_6 
REMARK    3  A    between atoms: C5_6  and  O2_7 
REMARK    4  A    between atoms: O2_7  and  C6_8 
REMARK    5  A    between atoms: C6_8  and  C7_9 
REMARK    6  A    between atoms: C11_16  and  O6_22 
ROOT
HETATM    1  C1  UNL     1      -3.944   0.974   0.867  1.00  0.00     0.171 A 
HETATM    2  O1  UNL     1      -3.552  -0.380   1.059  1.00  0.00    -0.328 OA
HETATM    3  C2  UNL     1      -2.143  -0.476   0.846  1.00  0.00     0.227 A 
HETATM    4  C3  UNL     1      -1.641   0.930   0.691  1.00  0.00     0.033 A 
HETATM    5  C4  UNL     1      -2.682   1.764   0.701  1.00  0.00     0.004 A 
ENDROOT
BRANCH   3   6
HETATM    6  N2  UNL     1      -1.787  -1.281  -0.315  1.00  0.00    -0.270 N 
HETATM    7  C11 UNL     1      -0.796  -2.338  -0.182  1.00  0.00     0.208 C 
HETATM    8  C12 UNL     1      -0.913  -3.052  -1.547  1.00  0.00     0.096 C 
HETATM    9  C13 UNL     1      -1.627  -2.085  -2.508  1.00  0.00     0.235 C 
HETATM   10  C14 UNL     1      -2.248  -1.074  -1.575  1.00  0.00     0.268 C 
HETATM   11  O5  UNL     1      -0.702  -1.423  -3.348  1.00  0.00    -0.213 OA
HETATM   12  O4  UNL     1      -2.994  -0.191  -1.919  1.00  0.00    -0.269 OA
BRANCH   7  13
HETATM   13  O6  UNL     1       0.490  -1.790   0.015  1.00  0.00    -0.333 OA
HETATM   14  C15 UNL     1       1.441  -2.732   0.458  1.00  0.00     0.176 C 
ENDBRANCH   7  13
ENDBRANCH   3   6
BRANCH   4  15
HETATM   15  C5  UNL     1      -0.183   1.260   0.557  1.00  0.00     0.178 C 
BRANCH  15  16
HETATM   16  O2  UNL     1       0.060   2.643   0.643  1.00  0.00    -0.293 OA
BRANCH  16  17
HETATM   17  C6  UNL     1       1.340   3.135   0.654  1.00  0.00     0.314 C 
HETATM   18  O3  UNL     1       1.459   4.340   0.767  1.00  0.00    -0.257 OA
BRANCH  17  19
HETATM   19  C7  UNL     1       2.508   2.436   0.556  1.00  0.00     0.144 A 
HETATM   20  C8  UNL     1       3.729   3.001   0.596  1.00  0.00     0.026 A 
HETATM   21  C9  UNL     1       4.630   2.016   0.475  1.00  0.00     0.022 A 
HETATM   22  C10 UNL     1       3.924   0.886   0.363  1.00  0.00     0.099 A 
HETATM   23  N1  UNL     1       2.692   1.185   0.416  1.00  0.00    -0.239 NA
ENDBRANCH  17  19
ENDBRANCH  16  17
ENDBRANCH  15  16
ENDBRANCH   4  15
TORSDOF 6
