REMARK  2 active torsions:
REMARK  status: ('A' for Active; 'I' for Inactive)
REMARK    1  A    between atoms: C4_4  and  O4_22 
REMARK    2  A    between atoms: C12_12  and  C15_17 
ROOT
HETATM    1  C1  UNL     1      -2.393  -2.261   1.009  1.00  0.00     0.001 C 
HETATM    2  C2  UNL     1      -3.329  -1.645  -0.022  1.00  0.00     0.002 C 
HETATM    3  C3  UNL     1      -3.132  -0.120  -0.218  1.00  0.00     0.023 C 
HETATM    4  C4  UNL     1      -1.626   0.338  -0.086  1.00  0.00     0.097 C 
HETATM    5  C5  UNL     1      -0.576  -0.809  -0.262  1.00  0.00     0.045 C 
HETATM    6  C6  UNL     1      -0.913  -2.001   0.687  1.00  0.00     0.006 C 
HETATM    7  C7  UNL     1       0.869  -0.264  -0.149  1.00  0.00     0.019 A 
HETATM    8  C8  UNL     1       1.167   1.002  -0.495  1.00  0.00     0.016 A 
HETATM    9  C9  UNL     1       0.109   1.974  -0.989  1.00  0.00     0.032 C 
HETATM   10  C10 UNL     1      -1.301   1.393  -1.168  1.00  0.00     0.032 C 
HETATM   11  C11 UNL     1       2.440   1.485  -0.427  1.00  0.00     0.193 A 
HETATM   12  C12 UNL     1       3.482   0.693  -0.031  1.00  0.00     0.063 A 
HETATM   13  C13 UNL     1       3.175  -0.588   0.281  1.00  0.00     0.172 A 
HETATM   14  C14 UNL     1       1.902  -1.065   0.217  1.00  0.00     0.217 A 
HETATM   15  O1  UNL     1       1.750  -2.231   0.503  1.00  0.00    -0.285 OA
HETATM   16  O2  UNL     1       4.065  -1.534   0.704  1.00  0.00    -0.187 OA
HETATM   17  O3  UNL     1       2.560   2.642  -0.759  1.00  0.00    -0.287 OA
HETATM   18  C18 UNL     1      -0.528  -1.401  -1.706  1.00  0.00     0.007 C 
HETATM   19  C20 UNL     1      -3.779   0.171  -1.604  1.00  0.00     0.002 C 
HETATM   20  C21 UNL     1      -4.062   0.614   0.786  1.00  0.00     0.002 C 
ENDROOT
BRANCH  12  21
HETATM   21  C15 UNL     1       4.761   1.171   0.036  1.00  0.00    -0.017 C 
HETATM   22  C16 UNL     1       5.151   2.441  -0.209  1.00  0.00    -0.004 C 
HETATM   23  C17 UNL     1       5.946   0.280   0.403  1.00  0.00     0.031 C 
ENDBRANCH  12  21
BRANCH   4  24
HETATM   24  O4  UNL     1      -1.430   1.127   1.073  1.00  0.00    -0.356 OA
HETATM   25  C19 UNL     1      -1.068   0.550   2.302  1.00  0.00     0.174 C 
ENDBRANCH   4  24
TORSDOF 2
