REMARK  1 active torsions:
REMARK  status: ('A' for Active; 'I' for Inactive)
REMARK    1  A    between atoms: C3_3  and  C11_11 
ROOT
HETATM    1  C1  UNL     1      -1.646   0.963   0.358  1.00  0.00     0.004 C 
HETATM    2  C2  UNL     1      -1.664  -0.523  -0.050  1.00  0.00     0.025 C 
HETATM    3  C3  UNL     1      -0.346  -1.298  -0.004  1.00  0.00    -0.034 C 
HETATM    4  C4  UNL     1       0.791  -0.564  -0.012  1.00  0.00    -0.049 C 
HETATM    5  C5  UNL     1       0.834   0.950   0.031  1.00  0.00     0.018 C 
HETATM    6  C6  UNL     1      -0.471   1.628  -0.372  1.00  0.00     0.004 C 
HETATM    7  C7  UNL     1       2.032   1.305  -0.864  1.00  0.00     0.004 C 
HETATM    8  C8  UNL     1       3.062   0.255  -0.425  1.00  0.00     0.004 C 
HETATM    9  C9  UNL     1       2.232  -1.012  -0.144  1.00  0.00     0.022 C 
HETATM   10  C10 UNL     1       2.535   2.743  -0.700  1.00  0.00     0.000 C 
HETATM   11  C14 UNL     1      -2.959   1.647  -0.082  1.00  0.00     0.000 C 
HETATM   12  C15 UNL     1      -1.530   1.095   1.891  1.00  0.00     0.000 C 
ENDROOT
BRANCH   3  13
HETATM   13  C11 UNL     1      -0.438  -2.656   0.002  1.00  0.00    -0.026 C 
HETATM   14  C12 UNL     1       0.579  -3.527   0.143  1.00  0.00    -0.005 C 
HETATM   15  C13 UNL     1      -1.803  -3.326  -0.136  1.00  0.00     0.030 C 
ENDBRANCH   3  13
TORSDOF 1
