REMARK  9 active torsions:
REMARK  status: ('A' for Active; 'I' for Inactive)
REMARK    1  A    between atoms: C1_1  and  O6_24 
REMARK    2  A    between atoms: C4_4  and  C5_6 
REMARK    3  A    between atoms: C5_6  and  C6_7 
REMARK    4  A    between atoms: C6_7  and  C7_8 
REMARK    5  A    between atoms: C7_8  and  C8_9 
REMARK    6  A    between atoms: C13_14  and  C14_15 
REMARK    7  A    between atoms: C14_15  and  C15_16 
REMARK    8  A    between atoms: C15_16  and  C16_17 
REMARK    9  A    between atoms: C16_17  and  C17_18 
ROOT
HETATM    1  C7  UNL     1       0.151   0.731  -0.244  1.00  0.00     0.031 C 
ENDROOT
BRANCH   1   2
HETATM    2  C6  UNL     1       0.195   0.532  -1.768  1.00  0.00     0.040 C 
BRANCH   2   3
HETATM    3  C5  UNL     1      -0.249  -0.858  -2.233  1.00  0.00     0.189 C 
HETATM    4  O3  UNL     1       0.756  -1.801  -1.939  1.00  0.00    -0.221 OA
BRANCH   3   5
HETATM    5  C4  UNL     1      -1.550  -1.352  -1.612  1.00  0.00     0.322 C 
HETATM    6  C3  UNL     1      -1.981  -2.734  -2.081  1.00  0.00     0.224 C 
HETATM    7  C2  UNL     1      -3.410  -2.774  -1.576  1.00  0.00     0.247 C 
HETATM    8  O4  UNL     1      -1.193  -3.736  -1.492  1.00  0.00    -0.218 OA
HETATM    9  C1  UNL     1      -3.907  -1.342  -1.765  1.00  0.00     0.408 C 
HETATM   10  O5  UNL     1      -4.164  -3.700  -2.313  1.00  0.00    -0.216 OA
HETATM   11  N1  UNL     1      -2.703  -0.526  -1.961  1.00  0.00     0.373 N 
BRANCH   9  12
HETATM   12  O6  UNL     1      -4.653  -0.948  -0.636  1.00  0.00    -0.322 OA
HETATM   13  C18 UNL     1      -5.213   0.340  -0.776  1.00  0.00     0.177 C 
ENDBRANCH   9  12
ENDBRANCH   3   5
ENDBRANCH   2   3
ENDBRANCH   1   2
BRANCH   1  14
HETATM   14  C8  UNL     1       0.852   2.005   0.204  1.00  0.00     0.005 C 
HETATM   15  C9  UNL     1       0.188   3.176   0.004  1.00  0.00     0.169 C 
HETATM   16  C10 UNL     1       0.777   4.501   0.458  1.00  0.00     0.069 C 
HETATM   17  O2  UNL     1      -0.903   3.205  -0.524  1.00  0.00    -0.292 OA
HETATM   18  C11 UNL     1       2.301   4.465   0.502  1.00  0.00     0.012 C 
HETATM   19  C12 UNL     1       2.735   3.246   1.315  1.00  0.00     0.022 C 
HETATM   20  C13 UNL     1       2.062   1.991   0.805  1.00  0.00    -0.045 C 
BRANCH  20  21
HETATM   21  C14 UNL     1       2.825   0.716   1.115  1.00  0.00     0.022 C 
BRANCH  21  22
HETATM   22  C15 UNL     1       2.389   0.114   2.461  1.00  0.00     0.007 C 
BRANCH  22  23
HETATM   23  C16 UNL     1       3.120  -1.203   2.764  1.00  0.00     0.036 C 
BRANCH  23  24
HETATM   24  C17 UNL     1       2.541  -1.898   3.992  1.00  0.00     0.182 C 
HETATM   25  O1  UNL     1       3.284  -3.068   4.269  1.00  0.00    -0.221 OA
ENDBRANCH  23  24
ENDBRANCH  22  23
ENDBRANCH  21  22
ENDBRANCH  20  21
ENDBRANCH   1  14
TORSDOF 9
