REMARK  5 active torsions:
REMARK  status: ('A' for Active; 'I' for Inactive)
REMARK    1  A    between atoms: C2_2  and  C21_27 
REMARK    2  A    between atoms: C7_8  and  C10_13 
REMARK    3  A    between atoms: C12_15  and  C16_21 
REMARK    4  A    between atoms: C16_21  and  C17_22 
REMARK    5  A    between atoms: C21_27  and  C22_28 
ROOT
HETATM    1  C1  UNL     1      -2.558   2.421  -0.309  1.00  0.00     0.131 A 
HETATM    2  C2  UNL     1      -2.048   3.664  -0.191  1.00  0.00     0.033 A 
HETATM    3  C3  UNL     1      -0.712   3.840  -0.066  1.00  0.00     0.134 A 
HETATM    4  C4  UNL     1       0.108   2.763  -0.045  1.00  0.00     0.089 A 
HETATM    5  C5  UNL     1      -0.387   1.518  -0.141  1.00  0.00     0.107 A 
HETATM    6  C6  UNL     1      -1.714   1.381  -0.279  1.00  0.00     0.052 A 
HETATM    7  O1  UNL     1       0.390   0.403  -0.135  1.00  0.00    -0.305 OA
HETATM    8  C7  UNL     1       1.738   0.536   0.066  1.00  0.00     0.128 A 
HETATM    9  C8  UNL     1       2.261   1.783   0.119  1.00  0.00     0.192 A 
HETATM   10  C9  UNL     1       1.460   2.889   0.070  1.00  0.00     0.227 A 
HETATM   11  O2  UNL     1       2.001   3.972   0.132  1.00  0.00    -0.284 OA
HETATM   12  O3  UNL     1       3.596   2.060   0.152  1.00  0.00    -0.185 OA
HETATM   13  O6  UNL     1      -0.214   5.107   0.015  1.00  0.00    -0.190 OA
HETATM   14  O7  UNL     1      -3.889   2.186  -0.474  1.00  0.00    -0.190 OA
ENDROOT
BRANCH   8  15
HETATM   15  C10 UNL     1       2.457  -0.617   0.177  1.00  0.00     0.027 A 
HETATM   16  C11 UNL     1       1.827  -1.798  -0.011  1.00  0.00     0.000 A 
HETATM   17  C12 UNL     1       2.414  -3.004   0.101  1.00  0.00     0.010 A 
HETATM   18  C13 UNL     1       3.717  -3.071   0.431  1.00  0.00     0.152 A 
HETATM   19  C14 UNL     1       4.388  -1.926   0.635  1.00  0.00     0.156 A 
HETATM   20  O5  UNL     1       4.371  -4.253   0.592  1.00  0.00    -0.188 OA
HETATM   21  C15 UNL     1       3.755  -0.748   0.516  1.00  0.00     0.032 A 
HETATM   22  O4  UNL     1       5.699  -1.972   0.999  1.00  0.00    -0.188 OA
BRANCH  17  23
HETATM   23  C16 UNL     1       1.600  -4.271  -0.100  1.00  0.00     0.054 C 
BRANCH  23  24
HETATM   24  C17 UNL     1       2.298  -5.293  -0.961  1.00  0.00    -0.030 C 
HETATM   25  C18 UNL     1       2.471  -6.601  -0.696  1.00  0.00    -0.048 C 
HETATM   26  C19 UNL     1       3.228  -7.496  -1.651  1.00  0.00     0.026 C 
HETATM   27  C20 UNL     1       1.968  -7.312   0.538  1.00  0.00     0.026 C 
ENDBRANCH  23  24
ENDBRANCH  17  23
ENDBRANCH   8  15
BRANCH   2  28
HETATM   28  C21 UNL     1      -3.005   4.849  -0.232  1.00  0.00     0.056 C 
BRANCH  28  29
HETATM   29  C22 UNL     1      -4.238   4.659   0.618  1.00  0.00    -0.030 C 
HETATM   30  C23 UNL     1      -5.505   4.971   0.292  1.00  0.00    -0.048 C 
HETATM   31  C24 UNL     1      -6.647   4.689   1.242  1.00  0.00     0.026 C 
HETATM   32  C25 UNL     1      -5.934   5.605  -1.010  1.00  0.00     0.026 C 
ENDBRANCH  28  29
ENDBRANCH   2  28
TORSDOF 5
