REMARK  13 active torsions:
REMARK  status: ('A' for Active; 'I' for Inactive)
REMARK    1  A    between atoms: C1_1  and  O5_23 
REMARK    2  A    between atoms: C4_4  and  C5_6 
REMARK    3  A    between atoms: C5_6  and  C6_7 
REMARK    4  A    between atoms: C6_7  and  C7_8 
REMARK    5  A    between atoms: C8_9  and  C9_10 
REMARK    6  A    between atoms: C9_10  and  C10_11 
REMARK    7  A    between atoms: C10_11  and  C11_12 
REMARK    8  A    between atoms: C11_12  and  C12_13 
REMARK    9  A    between atoms: C12_13  and  C13_14 
REMARK   10  A    between atoms: C13_14  and  C14_15 
REMARK   11  A    between atoms: C14_15  and  C15_16 
REMARK   12  A    between atoms: C15_16  and  C16_17 
REMARK   13  A    between atoms: C16_17  and  C17_18 
ROOT
HETATM    1  C7  UNL     1      -0.663  -1.344  -1.483  1.00  0.00    -0.031 C 
HETATM    2  C8  UNL     1      -0.039  -0.289  -0.937  1.00  0.00    -0.031 C 
ENDROOT
BRANCH   1   3
HETATM    3  C6  UNL     1      -2.114  -1.675  -1.243  1.00  0.00     0.028 C 
BRANCH   3   4
HETATM    4  C5  UNL     1      -2.993  -1.217  -2.417  1.00  0.00     0.044 C 
BRANCH   4   5
HETATM    5  C4  UNL     1      -4.476  -1.535  -2.177  1.00  0.00     0.293 C 
HETATM    6  C3  UNL     1      -4.838  -3.022  -2.198  1.00  0.00     0.221 C 
HETATM    7  C2  UNL     1      -6.138  -3.099  -2.985  1.00  0.00     0.247 C 
HETATM    8  O3  UNL     1      -5.054  -3.483  -0.886  1.00  0.00    -0.218 OA
HETATM    9  C1  UNL     1      -6.607  -1.660  -3.130  1.00  0.00     0.408 C 
HETATM   10  O4  UNL     1      -7.079  -3.901  -2.317  1.00  0.00    -0.216 OA
HETATM   11  N1  UNL     1      -5.334  -0.941  -3.201  1.00  0.00     0.370 N 
BRANCH   9  12
HETATM   12  O5  UNL     1      -7.309  -1.218  -1.991  1.00  0.00    -0.322 OA
HETATM   13  C18 UNL     1      -8.707  -1.171  -2.180  1.00  0.00     0.177 C 
ENDBRANCH   9  12
ENDBRANCH   4   5
ENDBRANCH   3   4
ENDBRANCH   1   3
BRANCH   2  14
HETATM   14  C9  UNL     1       1.407   0.056  -1.192  1.00  0.00     0.026 C 
BRANCH  14  15
HETATM   15  C10 UNL     1       2.134   0.471   0.098  1.00  0.00     0.005 C 
BRANCH  15  16
HETATM   16  C11 UNL     1       3.620   0.768  -0.159  1.00  0.00     0.008 C 
BRANCH  16  17
HETATM   17  C12 UNL     1       4.339   1.289   1.097  1.00  0.00     0.065 C 
BRANCH  17  18
HETATM   18  C13 UNL     1       5.817   1.578   0.879  1.00  0.00     0.151 C 
HETATM   19  O2  UNL     1       6.340   1.349  -0.189  1.00  0.00    -0.296 OA
BRANCH  18  20
HETATM   20  C14 UNL     1       6.664   2.158   2.005  1.00  0.00     0.065 C 
BRANCH  20  21
HETATM   21  C15 UNL     1       5.949   2.474   3.328  1.00  0.00     0.011 C 
BRANCH  21  22
HETATM   22  C16 UNL     1       6.921   3.059   4.367  1.00  0.00     0.036 C 
BRANCH  22  23
HETATM   23  C17 UNL     1       6.227   3.378   5.688  1.00  0.00     0.182 C 
HETATM   24  O1  UNL     1       7.168   3.915   6.596  1.00  0.00    -0.221 OA
ENDBRANCH  22  23
ENDBRANCH  21  22
ENDBRANCH  20  21
ENDBRANCH  18  20
ENDBRANCH  17  18
ENDBRANCH  16  17
ENDBRANCH  15  16
ENDBRANCH  14  15
ENDBRANCH   2  14
TORSDOF 13
