REMARK  5 active torsions:
REMARK  status: ('A' for Active; 'I' for Inactive)
REMARK    1  A    between atoms: C3_3  and  C21_26 
REMARK    2  A    between atoms: C9_10  and  C10_12 
REMARK    3  A    between atoms: C12_14  and  C16_19 
REMARK    4  A    between atoms: C16_19  and  C17_20 
REMARK    5  A    between atoms: C21_26  and  C22_27 
ROOT
HETATM    1  C1  UNL     1      -2.801   5.216  -0.019  1.00  0.00     0.055 A 
HETATM    2  C2  UNL     1      -3.307   3.983  -0.166  1.00  0.00     0.131 A 
HETATM    3  C3  UNL     1      -2.442   2.958  -0.280  1.00  0.00     0.030 A 
HETATM    4  C4  UNL     1      -1.109   3.176  -0.224  1.00  0.00     0.103 A 
HETATM    5  C5  UNL     1      -0.636   4.427  -0.081  1.00  0.00     0.089 A 
HETATM    6  C6  UNL     1      -1.485   5.473   0.014  1.00  0.00     0.138 A 
HETATM    7  O1  UNL     1      -1.088   6.768   0.169  1.00  0.00    -0.190 OA
HETATM    8  C7  UNL     1       0.712   4.608  -0.029  1.00  0.00     0.227 C 
HETATM    9  C8  UNL     1       1.553   3.533  -0.018  1.00  0.00     0.192 C 
HETATM   10  C9  UNL     1       1.065   2.274  -0.096  1.00  0.00     0.128 C 
HETATM   11  O2  UNL     1      -0.272   2.110  -0.343  1.00  0.00    -0.305 OA
HETATM   12  O4  UNL     1       2.877   3.850   0.046  1.00  0.00    -0.185 OA
HETATM   13  O5  UNL     1       1.204   5.714   0.051  1.00  0.00    -0.284 OA
HETATM   14  O6  UNL     1      -4.657   3.807  -0.178  1.00  0.00    -0.190 OA
ENDROOT
BRANCH  10  15
HETATM   15  C10 UNL     1       1.807   1.138   0.031  1.00  0.00     0.025 A 
HETATM   16  C11 UNL     1       1.208  -0.057  -0.178  1.00  0.00     0.000 A 
HETATM   17  C12 UNL     1       1.808  -1.255  -0.040  1.00  0.00     0.008 A 
HETATM   18  C13 UNL     1       3.098  -1.305   0.341  1.00  0.00     0.127 A 
HETATM   19  C14 UNL     1       3.718  -0.138   0.565  1.00  0.00     0.027 A 
HETATM   20  O3  UNL     1       3.762  -2.477   0.537  1.00  0.00    -0.191 OA
HETATM   21  C15 UNL     1       3.095   1.040   0.417  1.00  0.00     0.004 A 
BRANCH  17  22
HETATM   22  C16 UNL     1       1.014  -2.528  -0.267  1.00  0.00     0.054 C 
BRANCH  22  23
HETATM   23  C17 UNL     1       1.757  -3.571  -1.062  1.00  0.00    -0.030 C 
HETATM   24  C18 UNL     1       1.928  -4.868  -0.746  1.00  0.00    -0.048 C 
HETATM   25  C19 UNL     1       2.721  -5.788  -1.647  1.00  0.00     0.026 C 
HETATM   26  C20 UNL     1       1.391  -5.542   0.494  1.00  0.00     0.026 C 
ENDBRANCH  22  23
ENDBRANCH  17  22
ENDBRANCH  10  15
BRANCH   3  27
HETATM   27  C21 UNL     1      -2.938   1.534  -0.491  1.00  0.00     0.056 C 
BRANCH  27  28
HETATM   28  C22 UNL     1      -2.695   0.658   0.711  1.00  0.00    -0.030 C 
HETATM   29  C23 UNL     1      -2.727  -0.686   0.715  1.00  0.00    -0.048 C 
HETATM   30  C24 UNL     1      -2.434  -1.478   1.968  1.00  0.00     0.026 C 
HETATM   31  C25 UNL     1      -3.050  -1.529  -0.495  1.00  0.00     0.026 C 
ENDBRANCH  27  28
ENDBRANCH   3  27
TORSDOF 5
