REMARK  5 active torsions:
REMARK  status: ('A' for Active; 'I' for Inactive)
REMARK    1  A    between atoms: C3_3  and  C26_32 
REMARK    2  A    between atoms: C9_10  and  C10_12 
REMARK    3  A    between atoms: C11_13  and  C21_25 
REMARK    4  A    between atoms: C21_25  and  C22_26 
REMARK    5  A    between atoms: C26_32  and  C29_35 
ROOT
HETATM    1  C1  UNL     1      -2.388   5.220  -0.800  1.00  0.00     0.055 A 
HETATM    2  C2  UNL     1      -3.080   4.084  -0.943  1.00  0.00     0.131 A 
HETATM    3  C3  UNL     1      -2.445   2.896  -0.808  1.00  0.00     0.029 A 
HETATM    4  C4  UNL     1      -1.108   2.883  -0.544  1.00  0.00     0.103 A 
HETATM    5  C5  UNL     1      -0.447   4.057  -0.433  1.00  0.00     0.089 A 
HETATM    6  C6  UNL     1      -1.077   5.245  -0.541  1.00  0.00     0.138 A 
HETATM    7  O1  UNL     1      -0.475   6.463  -0.433  1.00  0.00    -0.190 OA
HETATM    8  C7  UNL     1       0.897   4.051  -0.216  1.00  0.00     0.227 C 
HETATM    9  C8  UNL     1       1.591   2.880  -0.240  1.00  0.00     0.192 C 
HETATM   10  C9  UNL     1       0.946   1.703  -0.412  1.00  0.00     0.128 C 
HETATM   11  O2  UNL     1      -0.425   1.709  -0.352  1.00  0.00    -0.305 OA
HETATM   12  O5  UNL     1       2.930   3.008   0.006  1.00  0.00    -0.185 OA
HETATM   13  O6  UNL     1       1.537   5.067  -0.051  1.00  0.00    -0.284 OA
HETATM   14  O7  UNL     1      -4.408   4.211  -1.229  1.00  0.00    -0.190 OA
ENDROOT
BRANCH  10  15
HETATM   15  C10 UNL     1       1.654   0.538  -0.488  1.00  0.00     0.024 A 
HETATM   16  C11 UNL     1       1.243  -0.694  -0.089  1.00  0.00    -0.014 A 
HETATM   17  C12 UNL     1       1.986  -1.800  -0.355  1.00  0.00     0.021 A 
HETATM   18  C13 UNL     1       3.171  -1.725  -0.997  1.00  0.00     0.119 A 
HETATM   19  C18 UNL     1       1.561  -3.039  -0.033  1.00  0.00    -0.001 C 
HETATM   20  C14 UNL     1       3.620  -0.508  -1.345  1.00  0.00     0.153 A 
HETATM   21  O4  UNL     1       3.965  -2.804  -1.297  1.00  0.00    -0.330 OA
HETATM   22  C15 UNL     1       2.849   0.560  -1.112  1.00  0.00     0.031 A 
HETATM   23  O3  UNL     1       4.803  -0.362  -2.006  1.00  0.00    -0.188 OA
HETATM   24  C16 UNL     1       3.800  -3.952  -0.518  1.00  0.00     0.117 C 
HETATM   25  C17 UNL     1       2.353  -4.112  -0.149  1.00  0.00     0.001 C 
HETATM   26  C19 UNL     1       4.628  -3.807   0.764  1.00  0.00     0.035 C 
HETATM   27  C20 UNL     1       4.290  -5.152  -1.333  1.00  0.00     0.035 C 
BRANCH  16  28
HETATM   28  C21 UNL     1       0.036  -0.870   0.826  1.00  0.00     0.052 C 
BRANCH  28  29
HETATM   29  C22 UNL     1       0.379  -1.522   2.147  1.00  0.00    -0.030 C 
HETATM   30  C23 UNL     1      -0.471  -2.201   2.938  1.00  0.00    -0.048 C 
HETATM   31  C24 UNL     1      -0.018  -2.780   4.258  1.00  0.00     0.026 C 
HETATM   32  C25 UNL     1      -1.929  -2.437   2.623  1.00  0.00     0.026 C 
ENDBRANCH  28  29
ENDBRANCH  16  28
ENDBRANCH  10  15
BRANCH   3  33
HETATM   33  C26 UNL     1      -3.318   1.632  -0.983  1.00  0.00     0.041 C 
HETATM   34  C27 UNL     1      -2.734   0.264  -0.588  1.00  0.00     0.009 C 
HETATM   35  C28 UNL     1      -3.679   1.508  -2.483  1.00  0.00     0.009 C 
BRANCH  33  36
HETATM   36  C29 UNL     1      -4.506   1.755  -0.036  1.00  0.00    -0.023 C 
HETATM   37  C30 UNL     1      -5.786   1.504  -0.343  1.00  0.00    -0.005 C 
ENDBRANCH  33  36
ENDBRANCH   3  33
TORSDOF 5
