REMARK  14 active torsions:
REMARK  status: ('A' for Active; 'I' for Inactive)
REMARK    1  A    between atoms: C1_1  and  O7_25 
REMARK    2  A    between atoms: C4_4  and  C5_6 
REMARK    3  A    between atoms: C5_6  and  C6_7 
REMARK    4  A    between atoms: C6_7  and  C7_8 
REMARK    5  A    between atoms: C7_8  and  C8_9 
REMARK    6  A    between atoms: C8_9  and  C9_10 
REMARK    7  A    between atoms: C9_10  and  C10_11 
REMARK    8  A    between atoms: C10_11  and  C11_12 
REMARK    9  A    between atoms: C11_12  and  C12_13 
REMARK   10  A    between atoms: C12_13  and  C13_14 
REMARK   11  A    between atoms: C13_14  and  C14_15 
REMARK   12  A    between atoms: C14_15  and  C15_16 
REMARK   13  A    between atoms: C15_16  and  C16_17 
REMARK   14  A    between atoms: C16_17  and  C17_18 
ROOT
HETATM    1  C7  UNL     1      -1.601   0.154   0.414  1.00  0.00     0.005 C 
ENDROOT
BRANCH   1   2
HETATM    2  C6  UNL     1      -3.076  -0.189   0.147  1.00  0.00     0.035 C 
BRANCH   2   3
HETATM    3  C5  UNL     1      -3.287  -1.612  -0.374  1.00  0.00     0.189 C 
HETATM    4  O4  UNL     1      -2.587  -2.542   0.418  1.00  0.00    -0.221 OA
BRANCH   3   5
HETATM    5  C4  UNL     1      -4.758  -2.015  -0.355  1.00  0.00     0.322 C 
HETATM    6  C3  UNL     1      -5.016  -3.432  -0.844  1.00  0.00     0.224 C 
HETATM    7  C2  UNL     1      -6.514  -3.423  -1.101  1.00  0.00     0.247 C 
HETATM    8  O5  UNL     1      -4.656  -4.374   0.133  1.00  0.00    -0.218 OA
HETATM    9  C1  UNL     1      -6.859  -1.960  -1.383  1.00  0.00     0.408 C 
HETATM   10  O6  UNL     1      -6.823  -4.245  -2.199  1.00  0.00    -0.216 OA
HETATM   11  N1  UNL     1      -5.588  -1.238  -1.269  1.00  0.00     0.373 N 
BRANCH   9  12
HETATM   12  O7  UNL     1      -7.814  -1.521  -0.442  1.00  0.00    -0.322 OA
HETATM   13  C18 UNL     1      -8.193  -0.174  -0.627  1.00  0.00     0.177 C 
ENDBRANCH   9  12
ENDBRANCH   3   5
ENDBRANCH   2   3
ENDBRANCH   1   2
BRANCH   1  14
HETATM   14  C8  UNL     1      -1.394   1.657   0.663  1.00  0.00     0.033 C 
BRANCH  14  15
HETATM   15  C9  UNL     1      -0.056   2.008   1.324  1.00  0.00     0.152 C 
HETATM   16  O3  UNL     1      -0.083   1.569   2.663  1.00  0.00    -0.224 OA
BRANCH  15  17
HETATM   17  C10 UNL     1       1.160   1.405   0.620  1.00  0.00     0.033 C 
BRANCH  17  18
HETATM   18  C11 UNL     1       2.495   1.949   1.157  1.00  0.00     0.003 C 
BRANCH  18  19
HETATM   19  C12 UNL     1       3.694   1.223   0.524  1.00  0.00     0.008 C 
BRANCH  19  20
HETATM   20  C13 UNL     1       5.037   1.845   0.936  1.00  0.00     0.065 C 
BRANCH  20  21
HETATM   21  C14 UNL     1       6.240   1.141   0.322  1.00  0.00     0.151 C 
HETATM   22  O2  UNL     1       6.156   0.017  -0.117  1.00  0.00    -0.296 OA
BRANCH  21  23
HETATM   23  C15 UNL     1       7.545   1.923   0.286  1.00  0.00     0.067 C 
BRANCH  23  24
HETATM   24  C16 UNL     1       8.720   1.149  -0.331  1.00  0.00     0.043 C 
BRANCH  24  25
HETATM   25  C17 UNL     1       9.978   2.008  -0.424  1.00  0.00     0.183 C 
HETATM   26  O1  UNL     1      11.024   1.252  -1.000  1.00  0.00    -0.221 OA
ENDBRANCH  24  25
ENDBRANCH  23  24
ENDBRANCH  21  23
ENDBRANCH  20  21
ENDBRANCH  19  20
ENDBRANCH  18  19
ENDBRANCH  17  18
ENDBRANCH  15  17
ENDBRANCH  14  15
ENDBRANCH   1  14
TORSDOF 14
