REMARK  0 active torsions:
REMARK  status: ('A' for Active; 'I' for Inactive)
ROOT
HETATM    1  C1  UNL     1      -2.640   1.120  -0.242  1.00  0.00     0.156 A 
HETATM    2  C2  UNL     1      -2.654  -0.225  -0.191  1.00  0.00     0.156 A 
HETATM    3  C3  UNL     1      -1.486  -0.889  -0.199  1.00  0.00     0.027 A 
HETATM    4  C4  UNL     1      -0.298  -0.264  -0.265  1.00  0.00     0.000 A 
HETATM    5  C5  UNL     1      -0.291   1.081  -0.298  1.00  0.00    -0.019 A 
HETATM    6  C6  UNL     1      -1.455   1.750  -0.290  1.00  0.00     0.025 A 
HETATM    7  C7  UNL     1       1.023   1.825  -0.350  1.00  0.00     0.056 C 
HETATM    8  C8  UNL     1       2.188   0.866  -0.103  1.00  0.00     0.120 C 
HETATM    9  C9  UNL     1       2.206   0.308   1.324  1.00  0.00     0.033 C 
HETATM   10  C10 UNL     1       1.567  -1.079   1.161  1.00  0.00     0.034 C 
HETATM   11  C11 UNL     1       1.032  -1.013  -0.271  1.00  0.00     0.111 C 
HETATM   12  O1  UNL     1       2.002  -0.242  -0.932  1.00  0.00    -0.357 OA
HETATM   13  C12 UNL     1       0.978  -2.385  -0.942  1.00  0.00     0.034 C 
HETATM   14  O2  UNL     1      -3.829  -0.909  -0.132  1.00  0.00    -0.188 OA
HETATM   15  O3  UNL     1      -3.798   1.835  -0.240  1.00  0.00    -0.188 OA
ENDROOT
TORSDOF 0
