REMARK  0 active torsions:
REMARK  status: ('A' for Active; 'I' for Inactive)
ROOT
HETATM    1  C1  UNL     1      -2.673   0.808  -0.386  1.00  0.00     0.133 A 
HETATM    2  C2  UNL     1      -2.638  -0.534  -0.374  1.00  0.00     0.054 A 
HETATM    3  C3  UNL     1      -1.491  -1.234  -0.377  1.00  0.00     0.131 A 
HETATM    4  C4  UNL     1      -0.327  -0.555  -0.394  1.00  0.00     0.026 A 
HETATM    5  C5  UNL     1      -0.332   0.792  -0.398  1.00  0.00    -0.017 A 
HETATM    6  C6  UNL     1      -1.498   1.456  -0.396  1.00  0.00     0.023 A 
HETATM    7  C7  UNL     1       0.977   1.549  -0.415  1.00  0.00     0.056 C 
HETATM    8  C8  UNL     1       2.162   0.606  -0.195  1.00  0.00     0.120 C 
HETATM    9  C9  UNL     1       2.204   0.015   1.218  1.00  0.00     0.033 C 
HETATM   10  C10 UNL     1       1.543  -1.360   1.043  1.00  0.00     0.037 C 
HETATM   11  C11 UNL     1       1.017  -1.266  -0.387  1.00  0.00     0.139 C 
HETATM   12  O1  UNL     1       1.988  -0.489  -1.044  1.00  0.00    -0.354 OA
HETATM   13  O2  UNL     1      -1.526  -2.595  -0.354  1.00  0.00    -0.190 OA
HETATM   14  O3  UNL     1      -3.849   1.492  -0.386  1.00  0.00    -0.190 OA
ENDROOT
TORSDOF 0
