REMARK  2 active torsions:
REMARK  status: ('A' for Active; 'I' for Inactive)
REMARK    1  A    between atoms: C3_4  and  C26_33 
REMARK    2  A    between atoms: C11_13  and  C14_16 
ROOT
HETATM    1  O1  UNL     1      -1.389   1.324   2.037  1.00  0.00    -0.223 OA
HETATM    2  C1  UNL     1      -0.270   0.559   1.672  1.00  0.00     0.153 C 
HETATM    3  C2  UNL     1      -0.589  -0.449   0.563  1.00  0.00     0.044 C 
HETATM    4  C3  UNL     1      -1.916  -1.269   0.651  1.00  0.00     0.109 C 
HETATM    5  C4  UNL     1      -2.059  -2.151  -0.619  1.00  0.00     0.108 C 
HETATM    6  C5  UNL     1      -0.837  -3.052  -0.826  1.00  0.00     0.028 C 
HETATM    7  C6  UNL     1       0.483  -2.269  -0.824  1.00  0.00     0.005 C 
HETATM    8  C7  UNL     1       0.646  -1.377   0.422  1.00  0.00     0.031 C 
HETATM    9  C8  UNL     1       2.050  -0.725   0.642  1.00  0.00     0.127 C 
HETATM   10  O2  UNL     1       2.547  -1.319   1.822  1.00  0.00    -0.226 OA
HETATM   11  C9  UNL     1       2.118   0.827   0.829  1.00  0.00     0.032 C 
HETATM   12  C10 UNL     1       0.776   1.524   1.132  1.00  0.00     0.036 C 
HETATM   13  C11 UNL     1       2.687   1.289  -0.538  1.00  0.00     0.027 C 
HETATM   14  C12 UNL     1       3.804   0.276  -0.817  1.00  0.00     0.007 C 
HETATM   15  C13 UNL     1       3.103  -1.039  -0.451  1.00  0.00     0.031 C 
HETATM   16  C19 UNL     1       3.071   1.236   1.986  1.00  0.00     0.003 C 
HETATM   17  C20 UNL     1      -2.309  -1.324  -1.895  1.00  0.00     0.058 C 
HETATM   18  C21 UNL     1      -3.600  -0.536  -1.719  1.00  0.00     0.125 C 
HETATM   19  O5  UNL     1      -4.634  -1.446  -1.493  1.00  0.00    -0.316 OA
HETATM   20  C22 UNL     1      -4.366  -2.216  -0.341  1.00  0.00     0.296 C 
HETATM   21  O6  UNL     1      -4.303  -1.392   0.801  1.00  0.00    -0.315 OA
HETATM   22  C23 UNL     1      -3.244  -0.480   0.705  1.00  0.00     0.132 C 
HETATM   23  C24 UNL     1      -3.491   0.396  -0.519  1.00  0.00     0.060 C 
HETATM   24  C25 UNL     1      -5.513  -3.188  -0.154  1.00  0.00     0.096 C 
HETATM   25  O7  UNL     1      -3.180  -2.970  -0.480  1.00  0.00    -0.317 OA
ENDROOT
BRANCH  13  26
HETATM   26  C14 UNL     1       3.057   2.750  -0.711  1.00  0.00     0.003 A 
HETATM   27  C15 UNL     1       2.204   3.585  -1.335  1.00  0.00     0.122 A 
HETATM   28  O3  UNL     1       2.458   4.907  -1.550  1.00  0.00    -0.271 OA
HETATM   29  C16 UNL     1       3.657   5.364  -1.091  1.00  0.00     0.300 A 
HETATM   30  C17 UNL     1       4.537   4.544  -0.463  1.00  0.00     0.068 A 
HETATM   31  O4  UNL     1       3.958   6.531  -1.241  1.00  0.00    -0.259 OA
HETATM   32  C18 UNL     1       4.228   3.252  -0.285  1.00  0.00     0.003 A 
ENDBRANCH  13  26
BRANCH   4  33
HETATM   33  C26 UNL     1      -1.868  -2.048   1.974  1.00  0.00     0.211 C 
HETATM   34  O8  UNL     1      -1.814  -3.252   2.065  1.00  0.00    -0.288 OA
ENDBRANCH   4  33
TORSDOF 2
