REMARK  1 active torsions:
REMARK  status: ('A' for Active; 'I' for Inactive)
REMARK    1  A    between atoms: C3_3  and  C12_13 
ROOT
HETATM    1  C1  UNL     1       1.076   0.005   1.157  1.00  0.00     0.058 C 
HETATM    2  C2  UNL     1       1.339  -0.827  -0.100  1.00  0.00     0.154 C 
HETATM    3  C3  UNL     1       0.659  -0.547  -1.456  1.00  0.00     0.031 C 
HETATM    4  C4  UNL     1       0.898   0.925  -1.856  1.00  0.00     0.005 C 
HETATM    5  C5  UNL     1       0.017   1.981  -1.175  1.00  0.00     0.030 C 
HETATM    6  C6  UNL     1      -0.050   1.926   0.348  1.00  0.00     0.115 C 
HETATM    7  C7  UNL     1       1.246   1.530   1.056  1.00  0.00     0.032 C 
HETATM    8  C8  UNL     1       1.087   1.957   2.531  1.00  0.00     0.005 C 
HETATM    9  C9  UNL     1      -0.089   1.062   2.966  1.00  0.00     0.027 C 
HETATM   10  C10 UNL     1      -0.333   0.187   1.720  1.00  0.00     0.095 C 
HETATM   11  O1  UNL     1      -0.984   0.971   0.772  1.00  0.00    -0.361 OA
HETATM   12  C11 UNL     1      -1.129  -1.069   2.037  1.00  0.00     0.030 C 
HETATM   13  O2  UNL     1       1.257  -2.189   0.243  1.00  0.00    -0.223 OA
ENDROOT
BRANCH   3  14
HETATM   14  C12 UNL     1      -0.769  -1.089  -1.744  1.00  0.00     0.002 C 
HETATM   15  C13 UNL     1      -1.304  -0.641  -3.123  1.00  0.00     0.000 C 
HETATM   16  C14 UNL     1      -0.873  -2.630  -1.722  1.00  0.00     0.000 C 
ENDBRANCH   3  14
TORSDOF 1
