REMARK  3 active torsions:
REMARK  status: ('A' for Active; 'I' for Inactive)
REMARK    1  A    between atoms: C3_3  and  O4_10 
REMARK    2  A    between atoms: C4_5  and  C6_8 
REMARK    3  A    between atoms: O4_10  and  C7_11 
ROOT
HETATM    1  O4  UNL     1      -0.000  -0.280  -0.577  1.00  0.00    -0.329 OA
ENDROOT
BRANCH   1   2
HETATM    2  C3  UNL     1      -1.399  -0.361  -0.410  1.00  0.00     0.270 C 
HETATM    3  C2  UNL     1      -1.943  -1.262  -1.493  1.00  0.00     0.241 C 
HETATM    4  C1  UNL     1      -3.460  -1.246  -1.501  1.00  0.00     0.220 C 
HETATM    5  O6  UNL     1      -1.459  -0.788  -2.729  1.00  0.00    -0.215 OA
HETATM    6  C5  UNL     1      -3.977   0.183  -1.455  1.00  0.00     0.215 C 
HETATM    7  O7  UNL     1      -3.937  -1.962  -0.389  1.00  0.00    -0.218 OA
HETATM    8  C4  UNL     1      -3.256   1.075  -0.449  1.00  0.00     0.184 C 
HETATM    9  O2  UNL     1      -3.812   0.740  -2.742  1.00  0.00    -0.218 OA
HETATM   10  O1  UNL     1      -1.869   0.957  -0.591  1.00  0.00    -0.326 OA
BRANCH   8  11
HETATM   11  C6  UNL     1      -3.683   0.925   1.007  1.00  0.00     0.214 C 
HETATM   12  O3  UNL     1      -5.028   1.333   1.157  1.00  0.00    -0.218 OA
ENDBRANCH   8  11
ENDBRANCH   1   2
BRANCH   1  13
HETATM   13  C7  UNL     1       0.667   0.408   0.451  1.00  0.00     0.143 C 
HETATM   14  C8  UNL     1       1.503   1.542  -0.155  1.00  0.00     0.035 C 
HETATM   15  C9  UNL     1       2.970   1.302   0.238  1.00  0.00     0.028 C 
HETATM   16  C10 UNL     1       3.046   1.442   1.768  1.00  0.00     0.005 C 
HETATM   17  C14 UNL     1       3.399  -0.115  -0.188  1.00  0.00     0.093 C 
HETATM   18  C11 UNL     1       2.287   0.249   2.365  1.00  0.00     0.030 C 
HETATM   19  C12 UNL     1       1.589  -0.533   1.239  1.00  0.00     0.118 C 
HETATM   20  C13 UNL     1       0.809  -1.704   1.849  1.00  0.00     0.032 C 
HETATM   21  O5  UNL     1       2.557  -1.071   0.390  1.00  0.00    -0.361 OA
HETATM   22  C15 UNL     1       3.340  -0.296  -1.714  1.00  0.00     0.030 C 
HETATM   23  C16 UNL     1       4.844  -0.424   0.241  1.00  0.00     0.030 C 
ENDBRANCH   1  13
TORSDOF 3
