REMARK  1 active torsions:
REMARK  status: ('A' for Active; 'I' for Inactive)
REMARK    1  A    between atoms: C3_3  and  O4_17 
ROOT
HETATM    1  C1  UNL     1       0.085   2.740  -1.680  1.00  0.00     0.030 A 
HETATM    2  C2  UNL     1       0.043   3.076  -0.383  1.00  0.00     0.155 A 
HETATM    3  C3  UNL     1       0.026   2.100   0.548  1.00  0.00     0.142 A 
HETATM    4  C4  UNL     1       0.136   0.804   0.173  1.00  0.00     0.127 A 
HETATM    5  C5  UNL     1       0.181   0.481  -1.133  1.00  0.00     0.064 A 
HETATM    6  C6  UNL     1       0.146   1.457  -2.058  1.00  0.00     0.007 A 
HETATM    7  C7  UNL     1       0.268  -0.823  -1.523  1.00  0.00     0.201 A 
HETATM    8  C8  UNL     1       0.311  -1.803  -0.574  1.00  0.00     0.087 A 
HETATM    9  C9  UNL     1       0.263  -1.446   0.727  1.00  0.00     0.105 A 
HETATM   10  O1  UNL     1       0.175  -0.152   1.144  1.00  0.00    -0.305 OA
HETATM   11  C10 UNL     1       0.306  -2.413   1.662  1.00  0.00     0.025 A 
HETATM   12  C11 UNL     1       0.395  -3.706   1.332  1.00  0.00     0.004 A 
HETATM   13  C12 UNL     1       0.441  -4.039   0.038  1.00  0.00     0.028 A 
HETATM   14  C13 UNL     1       0.400  -3.107  -0.930  1.00  0.00     0.136 A 
HETATM   15  O2  UNL     1       0.454  -3.539  -2.222  1.00  0.00    -0.190 OA
HETATM   16  O3  UNL     1       0.307  -1.080  -2.706  1.00  0.00    -0.286 OA
HETATM   17  O5  UNL     1      -0.006   4.390  -0.029  1.00  0.00    -0.188 OA
ENDROOT
BRANCH   3  18
HETATM   18  O4  UNL     1       0.029   2.429   1.883  1.00  0.00    -0.324 OA
HETATM   19  C14 UNL     1      -1.255   2.652   2.421  1.00  0.00     0.182 C 
ENDBRANCH   3  18
TORSDOF 1
