REMARK  4 active torsions:
REMARK  status: ('A' for Active; 'I' for Inactive)
REMARK    1  A    between atoms: C2_2  and  C20_26 
REMARK    2  A    between atoms: C6_6  and  O1_7 
REMARK    3  A    between atoms: O1_7  and  C7_8 
REMARK    4  A    between atoms: C7_8  and  C8_10 
ROOT
HETATM    1  C1  UNL     1       0.522  -0.390   2.324  1.00  0.00     0.096 C 
HETATM    2  C2  UNL     1       0.506  -1.714   2.144  1.00  0.00     0.035 C 
HETATM    3  C3  UNL     1      -0.702  -2.256   1.888  1.00  0.00     0.021 C 
HETATM    4  C4  UNL     1      -1.682  -1.531   0.949  1.00  0.00     0.087 C 
HETATM    5  C5  UNL     1      -1.710  -0.016   0.590  1.00  0.00     0.101 C 
HETATM    6  C6  UNL     1      -0.537   0.645  -0.189  1.00  0.00     0.138 C 
HETATM    7  C12 UNL     1       0.214   1.827   0.499  1.00  0.00     0.066 C 
HETATM    8  C13 UNL     1       0.897   1.658   1.890  1.00  0.00     0.155 C 
HETATM    9  O3  UNL     1       1.436   0.344   1.957  1.00  0.00    -0.328 OA
HETATM   10  C14 UNL     1      -0.196   1.611   2.940  1.00  0.00     0.200 C 
HETATM   11  C15 UNL     1      -0.410   0.280   3.023  1.00  0.00     0.064 C 
HETATM   12  O4  UNL     1      -0.803   2.519   3.452  1.00  0.00    -0.289 OA
HETATM   13  C16 UNL     1       1.971   2.699   2.206  1.00  0.00     0.038 C 
HETATM   14  C17 UNL     1      -3.097   0.031  -0.029  1.00  0.00     0.049 C 
HETATM   15  C18 UNL     1      -3.773  -1.058   0.414  1.00  0.00     0.296 C 
HETATM   16  O5  UNL     1      -3.021  -1.942   1.133  1.00  0.00    -0.277 OA
HETATM   17  O6  UNL     1      -4.951  -1.248   0.199  1.00  0.00    -0.259 OA
HETATM   18  C19 UNL     1      -3.637   0.996  -0.787  1.00  0.00     0.001 C 
ENDROOT
BRANCH   6  19
HETATM   19  O1  UNL     1       0.378  -0.325  -0.597  1.00  0.00    -0.300 OA
BRANCH  19  20
HETATM   20  C7  UNL     1       0.928  -0.503  -1.847  1.00  0.00     0.291 C 
HETATM   21  O2  UNL     1       1.619  -1.501  -1.907  1.00  0.00    -0.260 OA
BRANCH  20  22
HETATM   22  C8  UNL     1       0.831   0.250  -2.989  1.00  0.00     0.037 C 
HETATM   23  C9  UNL     1       1.428  -0.151  -4.136  1.00  0.00    -0.025 C 
HETATM   24  C10 UNL     1       2.225  -1.396  -4.434  1.00  0.00     0.030 C 
HETATM   25  C11 UNL     1       0.083   1.567  -3.099  1.00  0.00     0.036 C 
ENDBRANCH  20  22
ENDBRANCH  19  20
ENDBRANCH   6  19
BRANCH   2  26
HETATM   26  C20 UNL     1       1.770  -2.497   1.877  1.00  0.00     0.211 C 
HETATM   27  O7  UNL     1       2.534  -2.579   3.073  1.00  0.00    -0.215 OA
ENDBRANCH   2  26
TORSDOF 4
