REMARK  3 active torsions:
REMARK  status: ('A' for Active; 'I' for Inactive)
REMARK    1  A    between atoms: C2_2  and  C8_10 
REMARK    2  A    between atoms: C3_3  and  C7_8 
REMARK    3  A    between atoms: C5_5  and  O1_6 
ROOT
HETATM    1  C1  UNL     1       0.282   0.966   0.305  1.00  0.00     0.050 C 
HETATM    2  C2  UNL     1       0.478  -0.576   0.296  1.00  0.00     0.079 C 
HETATM    3  C3  UNL     1      -0.700  -1.045  -0.536  1.00  0.00    -0.009 C 
HETATM    4  C4  UNL     1      -1.563  -0.052  -0.778  1.00  0.00    -0.003 C 
HETATM    5  C5  UNL     1      -1.163   1.253  -0.151  1.00  0.00     0.138 C 
HETATM    6  C9  UNL     1       1.825  -0.934  -0.338  1.00  0.00     0.158 C 
HETATM    7  O4  UNL     1       1.927  -0.444  -1.649  1.00  0.00    -0.301 OA
HETATM    8  C10 UNL     1       1.549   0.840  -1.885  1.00  0.00     0.272 C 
HETATM    9  C11 UNL     1       1.310   1.637  -0.618  1.00  0.00     0.099 C 
HETATM   10  O5  UNL     1       1.486   1.328  -2.992  1.00  0.00    -0.264 OA
ENDROOT
BRANCH   2  11
HETATM   11  C8  UNL     1       0.346  -1.166   1.704  1.00  0.00     0.189 C 
HETATM   12  O3  UNL     1       1.386  -0.693   2.536  1.00  0.00    -0.220 OA
ENDBRANCH   2  11
BRANCH   3  13
HETATM   13  C7  UNL     1      -0.947  -2.473  -0.940  1.00  0.00     0.204 C 
HETATM   14  O2  UNL     1       0.104  -3.004  -1.733  1.00  0.00    -0.216 OA
ENDBRANCH   3  13
BRANCH   5  15
HETATM   15  O1  UNL     1      -2.013   1.520   0.942  1.00  0.00    -0.350 OA
HETATM   16  C6  UNL     1      -1.966   2.870   1.352  1.00  0.00     0.175 C 
ENDBRANCH   5  15
TORSDOF 3
