REMARK  1 active torsions:
REMARK  status: ('A' for Active; 'I' for Inactive)
REMARK    1  A    between atoms: C9_11  and  O3_12 
ROOT
HETATM    1  C1  UNL     1      -0.117   0.797  -0.720  1.00  0.00     0.040 C 
HETATM    2  C2  UNL     1      -0.070  -0.710  -0.800  1.00  0.00     0.092 C 
HETATM    3  C3  UNL     1       1.222  -1.443  -0.959  1.00  0.00     0.238 C 
HETATM    4  O1  UNL     1       1.765  -0.975  -2.156  1.00  0.00    -0.331 OA
HETATM    5  C4  UNL     1       2.006   0.430  -2.061  1.00  0.00     0.145 C 
HETATM    6  C5  UNL     1       1.365   1.173  -0.852  1.00  0.00     0.035 C 
HETATM    7  O2  UNL     1       0.745  -2.777  -0.900  1.00  0.00    -0.328 OA
HETATM    8  C6  UNL     1      -0.453  -2.764  -0.101  1.00  0.00     0.178 C 
HETATM    9  C7  UNL     1      -0.520  -1.362   0.487  1.00  0.00     0.189 C 
HETATM   10  C8  UNL     1      -1.657  -0.415   0.803  1.00  0.00     0.209 C 
HETATM   11  C9  UNL     1      -1.030   0.979   0.512  1.00  0.00     0.148 C 
HETATM   12  O4  UNL     1      -2.758  -0.646  -0.043  1.00  0.00    -0.218 OA
HETATM   13  O5  UNL     1       0.410  -1.282   1.537  1.00  0.00    -0.221 OA
ENDROOT
BRANCH  11  14
HETATM   14  O3  UNL     1      -0.307   1.415   1.631  1.00  0.00    -0.351 OA
HETATM   15  C10 UNL     1      -0.211   2.822   1.709  1.00  0.00     0.174 C 
ENDBRANCH  11  14
TORSDOF 1
