REMARK  0 active torsions:
REMARK  status: ('A' for Active; 'I' for Inactive)
ROOT
HETATM    1  C1  UNL     1      -0.865  -0.945  -0.097  1.00  0.00     0.154 C 
HETATM    2  C2  UNL     1       0.577  -1.403  -0.129  1.00  0.00     0.089 C 
HETATM    3  C3  UNL     1       1.184  -0.162  -0.826  1.00  0.00     0.190 C 
HETATM    4  O1  UNL     1       2.067   0.548   0.010  1.00  0.00    -0.335 OA
HETATM    5  C4  UNL     1       1.518   0.835   1.273  1.00  0.00     0.147 C 
HETATM    6  C5  UNL     1       0.030   1.172   1.181  1.00  0.00     0.062 C 
HETATM    7  C6  UNL     1      -0.679   0.551  -0.030  1.00  0.00     0.133 C 
HETATM    8  O2  UNL     1       0.132   0.747  -1.127  1.00  0.00    -0.337 OA
HETATM    9  C7  UNL     1      -2.157   0.901  -0.042  1.00  0.00     0.126 C 
HETATM   10  C8  UNL     1      -2.631  -0.177   0.946  1.00  0.00     0.274 C 
HETATM   11  O3  UNL     1      -1.742  -1.230   0.936  1.00  0.00    -0.302 OA
HETATM   12  O4  UNL     1      -3.607  -0.103   1.658  1.00  0.00    -0.264 OA
HETATM   13  C9  UNL     1       1.917  -0.503  -2.113  1.00  0.00     0.061 C 
ENDROOT
TORSDOF 0
