REMARK  5 active torsions:
REMARK  status: ('A' for Active; 'I' for Inactive)
REMARK    1  A    between atoms: C1_1  and  O5_11 
REMARK    2  A    between atoms: O5_11  and  C7_12 
REMARK    3  A    between atoms: C7_12  and  C8_13 
REMARK    4  A    between atoms: C9_14  and  C10_15 
REMARK    5  A    between atoms: C13_18  and  O6_21 
ROOT
HETATM    1  C7  UNL     1      -2.766   0.164   0.586  1.00  0.00     0.296 C 
HETATM    2  O7  UNL     1      -3.509   0.190   1.546  1.00  0.00    -0.259 OA
ENDROOT
BRANCH   1   3
HETATM    3  O5  UNL     1      -1.425   0.038   0.772  1.00  0.00    -0.296 OA
BRANCH   3   4
HETATM    4  C1  UNL     1      -0.837   0.113   2.039  1.00  0.00     0.185 C 
HETATM    5  C2  UNL     1      -0.073  -1.180   2.296  1.00  0.00     0.217 C 
HETATM    6  C3  UNL     1       0.693  -1.046   3.592  1.00  0.00     0.244 C 
HETATM    7  O4  UNL     1      -0.962  -2.264   2.416  1.00  0.00    -0.218 OA
HETATM    8  C4  UNL     1       1.582   0.163   3.512  1.00  0.00     0.303 C 
HETATM    9  O3  UNL     1       1.474  -2.197   3.787  1.00  0.00    -0.215 OA
HETATM   10  O1  UNL     1       0.834   1.334   3.307  1.00  0.00    -0.327 OA
HETATM   11  O2  UNL     1       2.134   0.438   4.785  1.00  0.00    -0.187 OA
HETATM   12  C5  UNL     1       0.108   1.319   2.105  1.00  0.00     0.148 C 
HETATM   13  C6  UNL     1       1.036   1.484   0.896  1.00  0.00     0.035 C 
ENDBRANCH   3   4
ENDBRANCH   1   3
BRANCH   1  14
HETATM   14  C8  UNL     1      -3.341   0.415  -0.625  1.00  0.00     0.068 C 
HETATM   15  C9  UNL     1      -2.801   0.497  -1.858  1.00  0.00     0.005 C 
BRANCH  15  16
HETATM   16  C10 UNL     1      -1.595   0.210  -2.393  1.00  0.00     0.000 A 
HETATM   17  C11 UNL     1      -1.280   0.725  -3.599  1.00  0.00     0.002 A 
HETATM   18  C12 UNL     1      -0.095   0.505  -4.191  1.00  0.00     0.024 A 
HETATM   19  C13 UNL     1       0.850  -0.276  -3.635  1.00  0.00     0.094 A 
HETATM   20  C14 UNL     1       0.505  -0.848  -2.468  1.00  0.00     0.024 A 
HETATM   21  C15 UNL     1      -0.677  -0.625  -1.874  1.00  0.00     0.002 A 
BRANCH  19  22
HETATM   22  O6  UNL     1       2.083  -0.555  -4.172  1.00  0.00    -0.328 OA
HETATM   23  C16 UNL     1       2.426   0.016  -5.413  1.00  0.00     0.181 C 
ENDBRANCH  19  22
ENDBRANCH  15  16
ENDBRANCH   1  14
TORSDOF 5
