REMARK  0 active torsions:
REMARK  status: ('A' for Active; 'I' for Inactive)
ROOT
HETATM    1  O1  UNL     1      -1.745  -1.242  -0.790  1.00  0.00    -0.330 OA
HETATM    2  C1  UNL     1      -1.114  -1.530   0.443  1.00  0.00     0.167 C 
HETATM    3  C2  UNL     1       0.305  -1.043   0.428  1.00  0.00    -0.015 C 
HETATM    4  C3  UNL     1       0.616   0.420   0.314  1.00  0.00     0.053 C 
HETATM    5  C4  UNL     1      -0.223   1.083  -0.774  1.00  0.00     0.149 C 
HETATM    6  O2  UNL     1      -1.577   1.071  -0.390  1.00  0.00    -0.334 OA
HETATM    7  C5  UNL     1      -2.361   0.018  -0.895  1.00  0.00     0.188 C 
HETATM    8  C6  UNL     1      -3.687   0.020  -0.130  1.00  0.00     0.061 C 
HETATM    9  C7  UNL     1      -2.683   0.258  -2.371  1.00  0.00     0.061 C 
HETATM   10  C8  UNL     1       2.139   0.426   0.037  1.00  0.00     0.040 C 
HETATM   11  C9  UNL     1       2.662  -0.968   0.415  1.00  0.00     0.137 C 
HETATM   12  C10 UNL     1       1.409  -1.792   0.510  1.00  0.00    -0.003 C 
HETATM   13  O3  UNL     1       3.353  -0.870   1.639  1.00  0.00    -0.352 OA
HETATM   14  C11 UNL     1       3.131   0.413   2.167  1.00  0.00     0.143 C 
HETATM   15  C12 UNL     1       2.942   1.333   0.969  1.00  0.00     0.035 C 
ENDROOT
TORSDOF 0
