REMARK  5 active torsions:
REMARK  status: ('A' for Active; 'I' for Inactive)
REMARK    1  A    between atoms: C3_3  and  C26_33 
REMARK    2  A    between atoms: C11_12  and  O2_13 
REMARK    3  A    between atoms: N1_16  and  C14_17 
REMARK    4  A    between atoms: C18_21  and  O4_26 
REMARK    5  A    between atoms: C26_33  and  O7_34 
ROOT
HETATM    1  C1  UNL     1      -3.708   0.502   0.908  1.00  0.00     0.033 C 
HETATM    2  C2  UNL     1      -3.821  -0.996   0.674  1.00  0.00     0.007 C 
HETATM    3  C3  UNL     1      -2.453  -1.762   0.716  1.00  0.00     0.061 C 
HETATM    4  C4  UNL     1      -1.251  -0.817   1.037  1.00  0.00     0.036 C 
HETATM    5  C5  UNL     1      -1.291   0.384   0.041  1.00  0.00     0.060 C 
HETATM    6  C6  UNL     1      -2.664   1.095  -0.021  1.00  0.00     0.154 C 
HETATM    7  O1  UNL     1      -3.155   1.244  -1.331  1.00  0.00    -0.223 OA
HETATM    8  C7  UNL     1      -0.314   1.580   0.224  1.00  0.00     0.009 C 
HETATM    9  C8  UNL     1       0.959   1.333   1.035  1.00  0.00     0.058 C 
HETATM   10  C9  UNL     1       1.667   0.500  -0.020  1.00  0.00     0.129 C 
HETATM   11  C10 UNL     1       0.671  -0.654  -0.425  1.00  0.00     0.086 C 
HETATM   12  C11 UNL     1       0.181  -1.385   0.842  1.00  0.00     0.120 C 
HETATM   13  C13 UNL     1      -0.705  -0.325  -1.268  1.00  0.00     0.226 C 
HETATM   14  N1  UNL     1      -1.929  -1.125  -1.600  1.00  0.00     0.135 N 
HETATM   15  C16 UNL     1      -2.226  -2.266  -0.728  1.00  0.00     0.253 C 
HETATM   16  C17 UNL     1       2.214   1.452  -1.095  1.00  0.00     0.170 C 
HETATM   17  C18 UNL     1       1.782   2.962  -1.102  1.00  0.00     0.147 C 
HETATM   18  C19 UNL     1       1.035   3.483   0.161  1.00  0.00     0.060 C 
HETATM   19  C20 UNL     1       1.549   2.704   1.357  1.00  0.00     0.157 C 
HETATM   20  O3  UNL     1       2.948   2.738   1.471  1.00  0.00    -0.223 OA
HETATM   21  C21 UNL     1      -0.476   3.107   0.226  1.00  0.00     0.005 C 
HETATM   22  O5  UNL     1       3.598   1.381  -0.891  1.00  0.00    -0.332 OA
HETATM   23  C23 UNL     1       3.892   0.146  -0.312  1.00  0.00     0.188 C 
HETATM   24  O6  UNL     1       2.806  -0.073   0.546  1.00  0.00    -0.337 OA
HETATM   25  C24 UNL     1       4.047  -0.938  -1.372  1.00  0.00     0.061 C 
HETATM   26  C25 UNL     1       5.167   0.254   0.514  1.00  0.00     0.061 C 
ENDROOT
BRANCH   3  27
HETATM   27  C26 UNL     1      -2.729  -2.884   1.749  1.00  0.00     0.144 C 
BRANCH  27  28
HETATM   28  O7  UNL     1      -1.684  -3.797   1.936  1.00  0.00    -0.351 OA
HETATM   29  C27 UNL     1      -2.017  -4.827   2.844  1.00  0.00     0.174 C 
ENDBRANCH  27  28
ENDBRANCH   3  27
BRANCH  12  30
HETATM   30  O2  UNL     1       0.272  -2.761   0.621  1.00  0.00    -0.354 OA
HETATM   31  C12 UNL     1       1.492  -3.337   1.039  1.00  0.00     0.174 C 
ENDBRANCH  12  30
BRANCH  14  32
HETATM   32  C14 UNL     1      -1.982  -1.466  -3.026  1.00  0.00     0.250 C 
HETATM   33  C15 UNL     1      -3.382  -1.884  -3.508  1.00  0.00     0.037 C 
ENDBRANCH  14  32
BRANCH  17  34
HETATM   34  O4  UNL     1       2.938   3.741  -1.300  1.00  0.00    -0.351 OA
HETATM   35  C22 UNL     1       2.712   4.966  -1.965  1.00  0.00     0.174 C 
ENDBRANCH  17  34
TORSDOF 5
