REMARK  6 active torsions:
REMARK  status: ('A' for Active; 'I' for Inactive)
REMARK    1  A    between atoms: C2_2  and  O2_10 
REMARK    2  A    between atoms: C5_5  and  C7_7 
REMARK    3  A    between atoms: O2_10  and  C9_11 
REMARK    4  A    between atoms: C13_15  and  C14_17 
REMARK    5  A    between atoms: C14_17  and  O4_18 
REMARK    6  A    between atoms: O4_18  and  C15_19 
ROOT
HETATM    1  C9  UNL     1       1.395  -2.830  -0.849  1.00  0.00     0.274 C 
HETATM    2  C10 UNL     1       0.991  -4.282  -0.690  1.00  0.00     0.241 C 
HETATM    3  C11 UNL     1      -0.509  -4.501  -0.667  1.00  0.00     0.220 C 
HETATM    4  C12 UNL     1      -1.143  -3.744  -1.816  1.00  0.00     0.215 C 
HETATM    5  C13 UNL     1      -0.706  -2.288  -1.879  1.00  0.00     0.180 C 
HETATM    6  O3  UNL     1       0.691  -2.155  -1.869  1.00  0.00    -0.326 OA
HETATM    7  O9  UNL     1      -0.790  -4.385  -3.024  1.00  0.00    -0.218 OA
HETATM    8  O10 UNL     1      -1.042  -4.073   0.562  1.00  0.00    -0.218 OA
HETATM    9  O11 UNL     1       1.524  -5.006  -1.777  1.00  0.00    -0.215 OA
ENDROOT
BRANCH   5  10
HETATM   10  C14 UNL     1      -1.417  -1.385  -0.872  1.00  0.00     0.177 C 
BRANCH  10  11
HETATM   11  O4  UNL     1      -1.060  -0.044  -1.104  1.00  0.00    -0.326 OA
BRANCH  11  12
HETATM   12  C15 UNL     1      -1.527   0.846  -0.115  1.00  0.00     0.270 C 
HETATM   13  C16 UNL     1      -1.000   2.221  -0.451  1.00  0.00     0.241 C 
HETATM   14  C17 UNL     1      -1.512   3.206   0.575  1.00  0.00     0.220 C 
HETATM   15  O8  UNL     1       0.403   2.225  -0.404  1.00  0.00    -0.215 OA
HETATM   16  C18 UNL     1      -3.025   3.139   0.604  1.00  0.00     0.215 C 
HETATM   17  O7  UNL     1      -1.094   4.502   0.229  1.00  0.00    -0.218 OA
HETATM   18  C19 UNL     1      -3.486   1.705   0.813  1.00  0.00     0.181 C 
HETATM   19  O6  UNL     1      -3.479   3.956   1.654  1.00  0.00    -0.218 OA
HETATM   20  O5  UNL     1      -2.937   0.856  -0.167  1.00  0.00    -0.326 OA
ENDBRANCH  11  12
ENDBRANCH  10  11
ENDBRANCH   5  10
BRANCH   1  21
HETATM   21  O2  UNL     1       1.264  -2.117   0.355  1.00  0.00    -0.304 OA
BRANCH  21  22
HETATM   22  C2  UNL     1       1.805  -0.858   0.479  1.00  0.00     0.097 A 
HETATM   23  C1  UNL     1       1.473  -0.124   1.558  1.00  0.00     0.024 A 
HETATM   24  C6  UNL     1       1.935   1.118   1.768  1.00  0.00     0.005 A 
HETATM   25  C5  UNL     1       2.768   1.698   0.887  1.00  0.00     0.035 A 
HETATM   26  C4  UNL     1       3.105   0.985  -0.204  1.00  0.00     0.005 A 
HETATM   27  C3  UNL     1       2.623  -0.253  -0.404  1.00  0.00     0.024 A 
BRANCH  25  28
HETATM   28  C7  UNL     1       3.243   2.964   1.054  1.00  0.00     0.173 C 
HETATM   29  O1  UNL     1       4.000   3.474   0.257  1.00  0.00    -0.291 OA
HETATM   30  C8  UNL     1       2.821   3.802   2.253  1.00  0.00     0.077 C 
ENDBRANCH  25  28
ENDBRANCH  21  22
ENDBRANCH   1  21
TORSDOF 6
