REMARK  9 active torsions:
REMARK  status: ('A' for Active; 'I' for Inactive)
REMARK    1  A    between atoms: C2_2  and  O11_33 
REMARK    2  A    between atoms: C4_4  and  C7_7 
REMARK    3  A    between atoms: C7_7  and  O2_9 
REMARK    4  A    between atoms: O2_9  and  C8_10 
REMARK    5  A    between atoms: C10_12  and  C22_29 
REMARK    6  A    between atoms: C12_14  and  O4_17 
REMARK    7  A    between atoms: O4_17  and  C14_18 
REMARK    8  A    between atoms: C14_18  and  C15_19 
REMARK    9  A    between atoms: C19_23  and  O5_25 
ROOT
HETATM    1  C8  UNL     1      -0.622   1.817  -0.224  1.00  0.00     0.160 C 
HETATM    2  C9  UNL     1      -2.124   2.061  -0.244  1.00  0.00     0.074 C 
HETATM    3  C10 UNL     1      -2.914   0.755  -0.236  1.00  0.00     0.209 C 
HETATM    4  C11 UNL     1      -2.553  -0.051   0.978  1.00  0.00     0.074 C 
HETATM    5  C12 UNL     1      -1.080  -0.179   0.757  1.00  0.00     0.160 C 
HETATM    6  C13 UNL     1      -0.247   1.035   0.982  1.00  0.00     0.207 C 
HETATM    7  O3  UNL     1       1.115   0.709   0.990  1.00  0.00    -0.218 OA
HETATM    8  O10 UNL     1      -2.551   0.033  -1.393  1.00  0.00    -0.215 OA
ENDROOT
BRANCH   1   9
HETATM    9  O2  UNL     1       0.066   3.022  -0.236  1.00  0.00    -0.298 OA
BRANCH   9  10
HETATM   10  C7  UNL     1       0.928   3.252  -1.257  1.00  0.00     0.296 C 
HETATM   11  O1  UNL     1       1.559   4.288  -1.224  1.00  0.00    -0.259 OA
BRANCH  10  12
HETATM   12  C4  UNL     1       1.089   2.405  -2.317  1.00  0.00     0.065 A 
HETATM   13  C3  UNL     1       2.330   2.103  -2.749  1.00  0.00     0.032 A 
HETATM   14  C2  UNL     1       2.525   1.201  -3.744  1.00  0.00     0.119 A 
HETATM   15  C1  UNL     1       1.435   0.622  -4.326  1.00  0.00     0.153 A 
HETATM   16  C6  UNL     1       0.189   0.928  -3.905  1.00  0.00     0.030 A 
HETATM   17  O12 UNL     1       1.615  -0.269  -5.346  1.00  0.00    -0.188 OA
HETATM   18  C5  UNL     1       0.025   1.813  -2.907  1.00  0.00     0.008 A 
BRANCH  14  19
HETATM   19  O11 UNL     1       3.793   0.865  -4.196  1.00  0.00    -0.326 OA
HETATM   20  C23 UNL     1       4.907   1.464  -3.565  1.00  0.00     0.181 C 
ENDBRANCH  14  19
ENDBRANCH  10  12
ENDBRANCH   9  10
ENDBRANCH   1   9
BRANCH   3  21
HETATM   21  C22 UNL     1      -4.399   1.003  -0.269  1.00  0.00     0.214 C 
HETATM   22  O8  UNL     1      -5.083   0.601  -1.172  1.00  0.00    -0.646 OA
HETATM   23  O9  UNL     1      -4.885   1.706   0.756  1.00  0.00    -0.646 OA
ENDBRANCH   3  21
BRANCH   5  24
HETATM   24  O4  UNL     1      -0.679  -1.067  -0.202  1.00  0.00    -0.298 OA
BRANCH  24  25
HETATM   25  C14 UNL     1      -0.115  -2.281   0.004  1.00  0.00     0.296 C 
HETATM   26  O7  UNL     1       0.168  -2.901  -0.998  1.00  0.00    -0.259 OA
BRANCH  25  27
HETATM   27  C15 UNL     1       0.143  -2.840   1.232  1.00  0.00     0.065 A 
HETATM   28  C16 UNL     1       0.704  -4.061   1.354  1.00  0.00     0.008 A 
HETATM   29  C17 UNL     1       0.930  -4.554   2.590  1.00  0.00     0.030 A 
HETATM   30  C18 UNL     1       0.617  -3.874   3.719  1.00  0.00     0.153 A 
HETATM   31  C19 UNL     1       0.075  -2.657   3.663  1.00  0.00     0.119 A 
HETATM   32  O6  UNL     1       0.846  -4.389   4.942  1.00  0.00    -0.188 OA
HETATM   33  C20 UNL     1      -0.121  -2.271   2.399  1.00  0.00     0.032 A 
BRANCH  31  34
HETATM   34  O5  UNL     1      -0.318  -1.905   4.745  1.00  0.00    -0.326 OA
HETATM   35  C21 UNL     1       0.292  -0.643   4.934  1.00  0.00     0.181 C 
ENDBRANCH  31  34
ENDBRANCH  25  27
ENDBRANCH  24  25
ENDBRANCH   5  24
TORSDOF 9
