REMARK  9 active torsions:
REMARK  status: ('A' for Active; 'I' for Inactive)
REMARK    1  A    between atoms: C2_2  and  C24_33 
REMARK    2  A    between atoms: C4_4  and  O6_20 
REMARK    3  A    between atoms: C5_5  and  O2_8 
REMARK    4  A    between atoms: O2_8  and  C7_9 
REMARK    5  A    between atoms: C7_9  and  C8_10 
REMARK    6  A    between atoms: C12_14  and  O3_16 
REMARK    7  A    between atoms: O6_20  and  C15_21 
REMARK    8  A    between atoms: C15_21  and  C16_23 
REMARK    9  A    between atoms: C20_27  and  O8_29 
ROOT
HETATM    1  C1  UNL     1      -1.309   1.219  -3.601  1.00  0.00     0.077 C 
HETATM    2  C2  UNL     1      -2.305   0.132  -3.194  1.00  0.00     0.209 C 
HETATM    3  C3  UNL     1      -2.878   0.453  -1.813  1.00  0.00     0.074 C 
HETATM    4  C4  UNL     1      -1.798   0.621  -0.742  1.00  0.00     0.158 C 
HETATM    5  C5  UNL     1      -0.818   1.726  -1.168  1.00  0.00     0.182 C 
HETATM    6  C6  UNL     1      -0.221   1.442  -2.545  1.00  0.00     0.185 C 
HETATM    7  O1  UNL     1       0.565   2.537  -2.963  1.00  0.00    -0.221 OA
HETATM    8  O9  UNL     1      -1.618  -1.099  -3.133  1.00  0.00    -0.215 OA
ENDROOT
BRANCH   4   9
HETATM    9  O6  UNL     1      -1.036  -0.503  -0.387  1.00  0.00    -0.298 OA
BRANCH   9  10
HETATM   10  C15 UNL     1      -1.441  -1.807  -0.462  1.00  0.00     0.296 C 
HETATM   11  O7  UNL     1      -2.505  -2.094  -0.965  1.00  0.00    -0.259 OA
BRANCH  10  12
HETATM   12  C16 UNL     1      -0.673  -2.811   0.057  1.00  0.00     0.065 A 
HETATM   13  C17 UNL     1       0.508  -2.522   0.630  1.00  0.00     0.005 A 
HETATM   14  C18 UNL     1       1.255  -3.505   1.148  1.00  0.00    -0.002 A 
HETATM   15  C19 UNL     1       0.847  -4.784   1.108  1.00  0.00     0.001 A 
HETATM   16  C20 UNL     1      -0.332  -5.110   0.531  1.00  0.00     0.090 A 
HETATM   17  C23 UNL     1       1.716  -5.867   1.713  1.00  0.00     0.033 C 
HETATM   18  C21 UNL     1      -1.065  -4.098   0.018  1.00  0.00     0.029 A 
BRANCH  16  19
HETATM   19  O8  UNL     1      -0.711  -6.433   0.522  1.00  0.00    -0.328 OA
HETATM   20  C22 UNL     1      -1.977  -6.787   0.014  1.00  0.00     0.181 C 
ENDBRANCH  16  19
ENDBRANCH  10  12
ENDBRANCH   9  10
ENDBRANCH   4   9
BRANCH   5  21
HETATM   21  O2  UNL     1       0.173   1.790  -0.180  1.00  0.00    -0.296 OA
BRANCH  21  22
HETATM   22  C7  UNL     1       0.765   2.982   0.126  1.00  0.00     0.296 C 
HETATM   23  O5  UNL     1       0.741   3.868  -0.701  1.00  0.00    -0.259 OA
BRANCH  22  24
HETATM   24  C8  UNL     1       1.295   3.225   1.361  1.00  0.00     0.065 A 
HETATM   25  C9  UNL     1       1.273   2.265   2.301  1.00  0.00     0.008 A 
HETATM   26  C10 UNL     1       1.782   2.512   3.515  1.00  0.00     0.030 A 
HETATM   27  C11 UNL     1       2.319   3.705   3.819  1.00  0.00     0.153 A 
HETATM   28  C12 UNL     1       2.352   4.686   2.893  1.00  0.00     0.119 A 
HETATM   29  O4  UNL     1       2.828   3.930   5.062  1.00  0.00    -0.188 OA
HETATM   30  C13 UNL     1       1.845   4.414   1.672  1.00  0.00     0.032 A 
BRANCH  28  31
HETATM   31  O3  UNL     1       2.932   5.878   3.257  1.00  0.00    -0.326 OA
HETATM   32  C14 UNL     1       3.218   6.838   2.267  1.00  0.00     0.181 C 
ENDBRANCH  28  31
ENDBRANCH  22  24
ENDBRANCH  21  22
ENDBRANCH   5  21
BRANCH   2  33
HETATM   33  C24 UNL     1      -3.466  -0.061  -4.163  1.00  0.00     0.214 C 
HETATM   34  O10 UNL     1      -4.075  -1.097  -4.283  1.00  0.00    -0.646 OA
HETATM   35  O11 UNL     1      -3.814   1.054  -4.827  1.00  0.00    -0.646 OA
ENDBRANCH   2  33
TORSDOF 9
