REMARK  2 active torsions:
REMARK  status: ('A' for Active; 'I' for Inactive)
REMARK    1  A    between atoms: C6_6  and  O1_7 
REMARK    2  A    between atoms: C11_12  and  C12_13 
ROOT
HETATM    1  C1  UNL     1      -2.855   1.053   0.809  1.00  0.00     0.141 A 
HETATM    2  C2  UNL     1      -2.909  -0.280   0.707  1.00  0.00     0.121 A 
HETATM    3  C3  UNL     1      -1.798  -1.018   0.727  1.00  0.00     0.022 A 
HETATM    4  C4  UNL     1      -0.614  -0.395   0.864  1.00  0.00    -0.018 A 
HETATM    5  C5  UNL     1      -0.567   0.951   0.966  1.00  0.00    -0.001 A 
HETATM    6  C6  UNL     1      -1.690   1.716   0.942  1.00  0.00     0.114 A 
HETATM    7  C8  UNL     1       0.761   1.668   1.139  1.00  0.00     0.031 C 
HETATM    8  C9  UNL     1       2.055   0.855   0.962  1.00  0.00     0.045 C 
HETATM    9  C10 UNL     1       1.879  -0.587   1.419  1.00  0.00     0.097 C 
HETATM   10  C11 UNL     1       0.627  -1.260   0.854  1.00  0.00     0.054 C 
HETATM   11  C19 UNL     1       1.992  -0.423   2.922  1.00  0.00     0.272 C 
HETATM   12  O4  UNL     1       2.803   0.644   3.163  1.00  0.00    -0.302 OA
HETATM   13  C20 UNL     1       3.118   1.305   1.962  1.00  0.00     0.153 C 
HETATM   14  O5  UNL     1       1.491  -1.132   3.765  1.00  0.00    -0.264 OA
HETATM   15  O6  UNL     1      -4.059  -0.694   0.593  1.00  0.00    -0.299 OA
HETATM   16  C21 UNL     1      -4.920   0.439   0.624  1.00  0.00     0.304 A 
HETATM   17  O7  UNL     1      -3.994   1.514   0.763  1.00  0.00    -0.298 OA
ENDROOT
BRANCH  10  18
HETATM   18  C12 UNL     1       0.906  -1.732  -0.568  1.00  0.00    -0.016 A 
HETATM   19  C13 UNL     1       1.287  -3.005  -0.801  1.00  0.00    -0.002 A 
HETATM   20  C14 UNL     1       1.571  -3.453  -2.036  1.00  0.00     0.026 A 
HETATM   21  C15 UNL     1       1.476  -2.590  -3.054  1.00  0.00     0.119 A 
HETATM   22  C16 UNL     1       1.104  -1.324  -2.841  1.00  0.00     0.119 A 
HETATM   23  O3  UNL     1       1.698  -2.796  -4.243  1.00  0.00    -0.300 OA
HETATM   24  C17 UNL     1       0.816  -0.883  -1.611  1.00  0.00     0.022 A 
HETATM   25  O2  UNL     1       1.079  -0.684  -3.889  1.00  0.00    -0.300 OA
HETATM   26  C18 UNL     1       1.471  -1.569  -4.939  1.00  0.00     0.304 A 
ENDBRANCH  10  18
BRANCH   6  27
HETATM   27  O1  UNL     1      -1.554   3.083   1.051  1.00  0.00    -0.326 OA
HETATM   28  C7  UNL     1      -2.677   3.928   1.006  1.00  0.00     0.181 C 
ENDBRANCH   6  27
TORSDOF 2
