REMARK  9 active torsions:
REMARK  status: ('A' for Active; 'I' for Inactive)
REMARK    1  A    between atoms: C1_2  and  C2_3 
REMARK    2  A    between atoms: C2_3  and  C3_4 
REMARK    3  A    between atoms: C2_3  and  O3_6 
REMARK    4  A    between atoms: O3_6  and  C4_7 
REMARK    5  A    between atoms: C5_8  and  O4_9 
REMARK    6  A    between atoms: C8_12  and  C12_17 
REMARK    7  A    between atoms: C10_14  and  O5_15 
REMARK    8  A    between atoms: C12_17  and  C13_18 
REMARK    9  A    between atoms: C13_18  and  C14_19 
ROOT
HETATM    1  C4  UNL     1       0.823   0.576   0.211  1.00  0.00     0.138 C 
HETATM    2  C5  UNL     1       1.372  -0.640   0.445  1.00  0.00     0.118 C 
HETATM    3  C7  UNL     1       0.540  -1.674   0.674  1.00  0.00     0.022 C 
HETATM    4  C8  UNL     1      -0.796  -1.549   0.720  1.00  0.00    -0.018 C 
HETATM    5  C9  UNL     1      -1.295  -0.316   0.554  1.00  0.00     0.022 C 
HETATM    6  C10 UNL     1      -0.510   0.759   0.360  1.00  0.00     0.118 C 
ENDROOT
BRANCH   1   7
HETATM    7  O3  UNL     1       1.631   1.666  -0.013  1.00  0.00    -0.324 OA
BRANCH   7   8
HETATM    8  C2  UNL     1       2.108   1.831  -1.321  1.00  0.00     0.187 C 
BRANCH   8   9
HETATM    9  C1  UNL     1       3.051   3.028  -1.319  1.00  0.00     0.215 C 
HETATM   10  O1  UNL     1       2.342   4.215  -1.026  1.00  0.00    -0.218 OA
ENDBRANCH   8   9
BRANCH   8  11
HETATM   11  C3  UNL     1       0.974   1.987  -2.326  1.00  0.00     0.215 C 
HETATM   12  O2  UNL     1       1.506   2.115  -3.630  1.00  0.00    -0.218 OA
ENDBRANCH   8  11
ENDBRANCH   7   8
ENDBRANCH   1   7
BRANCH   2  13
HETATM   13  O4  UNL     1       2.742  -0.760   0.378  1.00  0.00    -0.326 OA
HETATM   14  C6  UNL     1       3.326  -2.041   0.410  1.00  0.00     0.181 C 
ENDBRANCH   2  13
BRANCH   6  15
HETATM   15  O5  UNL     1      -1.091   1.988   0.153  1.00  0.00    -0.326 OA
HETATM   16  C11 UNL     1      -1.045   2.846   1.270  1.00  0.00     0.181 C 
ENDBRANCH   6  15
BRANCH   4  17
HETATM   17  C12 UNL     1      -1.650  -2.781   0.958  1.00  0.00     0.029 C 
BRANCH  17  18
HETATM   18  C13 UNL     1      -3.175  -2.588   0.978  1.00  0.00     0.040 C 
BRANCH  18  19
HETATM   19  C14 UNL     1      -3.904  -3.910   1.210  1.00  0.00     0.183 C 
HETATM   20  O6  UNL     1      -5.299  -3.687   1.226  1.00  0.00    -0.221 OA
ENDBRANCH  18  19
ENDBRANCH  17  18
ENDBRANCH   4  17
TORSDOF 9
