REMARK  4 active torsions:
REMARK  status: ('A' for Active; 'I' for Inactive)
REMARK    1  A    between atoms: C6_6  and  C7_7 
REMARK    2  A    between atoms: C7_7  and  C8_8 
REMARK    3  A    between atoms: C13_14  and  C15_16 
REMARK    4  A    between atoms: C20_21  and  O2_22 
ROOT
HETATM    1  C1  UNL     1       1.330  -2.902  -0.880  1.00  0.00     0.129 A 
HETATM    2  C2  UNL     1       2.444  -2.425  -0.306  1.00  0.00     0.027 A 
HETATM    3  C3  UNL     1       2.437  -1.250   0.334  1.00  0.00     0.004 A 
HETATM    4  C4  UNL     1       1.311  -0.519   0.414  1.00  0.00     0.022 A 
HETATM    5  C5  UNL     1       0.173  -0.994  -0.128  1.00  0.00     0.093 A 
HETATM    6  C6  UNL     1       0.198  -2.176  -0.787  1.00  0.00     0.030 A 
HETATM    7  O1  UNL     1      -0.989  -0.287  -0.045  1.00  0.00    -0.326 OA
HETATM    8  C12 UNL     1      -0.897   1.090   0.242  1.00  0.00     0.175 C 
HETATM    9  C13 UNL     1       0.282   1.519   1.112  1.00  0.00     0.010 C 
HETATM   10  C14 UNL     1       1.321   0.662   1.060  1.00  0.00     0.000 C 
HETATM   11  O4  UNL     1       1.371  -4.096  -1.534  1.00  0.00    -0.190 OA
ENDROOT
BRANCH   9  12
HETATM   12  C15 UNL     1       0.257   2.710   1.781  1.00  0.00     0.021 A 
HETATM   13  C16 UNL     1      -0.755   3.566   1.504  1.00  0.00     0.004 A 
HETATM   14  C17 UNL     1      -0.895   4.781   2.053  1.00  0.00     0.028 A 
HETATM   15  C18 UNL     1       0.004   5.233   2.933  1.00  0.00     0.133 A 
HETATM   16  C19 UNL     1       1.006   4.395   3.223  1.00  0.00     0.052 A 
HETATM   17  O3  UNL     1      -0.083   6.470   3.491  1.00  0.00    -0.190 OA
HETATM   18  C20 UNL     1       1.141   3.149   2.722  1.00  0.00     0.096 A 
BRANCH  18  19
HETATM   19  O2  UNL     1       2.255   2.469   3.150  1.00  0.00    -0.328 OA
HETATM   20  C21 UNL     1       2.017   1.621   4.251  1.00  0.00     0.181 C 
ENDBRANCH  18  19
ENDBRANCH   9  12
BRANCH   6  21
HETATM   21  C7  UNL     1      -1.059  -2.721  -1.449  1.00  0.00     0.056 C 
BRANCH  21  22
HETATM   22  C8  UNL     1      -0.994  -2.554  -2.948  1.00  0.00    -0.030 C 
HETATM   23  C9  UNL     1      -1.928  -2.964  -3.824  1.00  0.00    -0.048 C 
HETATM   24  C10 UNL     1      -1.749  -2.769  -5.312  1.00  0.00     0.026 C 
HETATM   25  C11 UNL     1      -3.214  -3.647  -3.426  1.00  0.00     0.026 C 
ENDBRANCH  21  22
ENDBRANCH   6  21
TORSDOF 4
