REMARK  6 active torsions:
REMARK  status: ('A' for Active; 'I' for Inactive)
REMARK    1  A    between atoms: C7_8  and  C10_12 
REMARK    2  A    between atoms: C12_14  and  C22_25 
REMARK    3  A    between atoms: C13_15  and  O3_23 
REMARK    4  A    between atoms: C14_16  and  C16_18 
REMARK    5  A    between atoms: C17_19  and  C18_20 
REMARK    6  A    between atoms: C22_25  and  C23_26 
ROOT
HETATM    1  C10 UNL     1      -0.133  -1.034  -0.571  1.00  0.00     0.005 A 
HETATM    2  C11 UNL     1       0.509  -0.826   0.587  1.00  0.00    -0.004 A 
HETATM    3  C12 UNL     1       1.502   0.073   0.690  1.00  0.00     0.004 A 
HETATM    4  C13 UNL     1       1.876   0.812  -0.380  1.00  0.00     0.090 A 
HETATM    5  C14 UNL     1       1.179   0.678  -1.534  1.00  0.00     0.022 A 
HETATM    6  C15 UNL     1       0.238  -0.286  -1.621  1.00  0.00     0.000 A 
ENDROOT
BRANCH   1   7
HETATM    7  C7  UNL     1      -1.273  -2.031  -0.663  1.00  0.00     0.151 C 
HETATM    8  O1  UNL     1      -2.420  -1.409  -1.175  1.00  0.00    -0.328 OA
HETATM    9  C5  UNL     1      -3.509  -2.231  -1.304  1.00  0.00     0.101 A 
HETATM   10  C4  UNL     1      -3.432  -3.571  -1.485  1.00  0.00     0.083 A 
HETATM   11  C6  UNL     1      -4.725  -1.670  -1.175  1.00  0.00     0.052 A 
HETATM   12  C3  UNL     1      -4.561  -4.316  -1.558  1.00  0.00     0.138 A 
HETATM   13  C9  UNL     1      -2.197  -4.136  -1.615  1.00  0.00     0.180 C 
HETATM   14  C2  UNL     1      -5.745  -3.691  -1.430  1.00  0.00     0.055 A 
HETATM   15  O4  UNL     1      -4.597  -5.670  -1.728  1.00  0.00    -0.190 OA
HETATM   16  C1  UNL     1      -5.864  -2.370  -1.242  1.00  0.00     0.135 A 
HETATM   17  O5  UNL     1      -7.073  -1.762  -1.109  1.00  0.00    -0.190 OA
HETATM   18  C8  UNL     1      -0.970  -3.238  -1.534  1.00  0.00     0.104 C 
HETATM   19  O2  UNL     1      -1.990  -5.313  -1.802  1.00  0.00    -0.291 OA
ENDBRANCH   1   7
BRANCH   3  20
HETATM   20  C22 UNL     1       2.180   0.199   2.045  1.00  0.00     0.054 C 
BRANCH  20  21
HETATM   21  C23 UNL     1       1.401   1.084   2.980  1.00  0.00    -0.030 C 
HETATM   22  C24 UNL     1       1.817   1.476   4.198  1.00  0.00    -0.048 C 
HETATM   23  C25 UNL     1       0.961   2.356   5.080  1.00  0.00     0.026 C 
HETATM   24  C26 UNL     1       3.150   1.085   4.799  1.00  0.00     0.026 C 
ENDBRANCH  20  21
ENDBRANCH   3  20
BRANCH   5  25
HETATM   25  C16 UNL     1       1.410   1.387  -2.662  1.00  0.00     0.002 C 
HETATM   26  C17 UNL     1       1.928   2.604  -2.912  1.00  0.00    -0.004 C 
BRANCH  26  27
HETATM   27  C18 UNL     1       1.962   3.729  -2.164  1.00  0.00    -0.022 C 
HETATM   28  C19 UNL     1       2.556   4.826  -2.673  1.00  0.00    -0.005 C 
HETATM   29  C20 UNL     1       1.250   3.899  -0.838  1.00  0.00     0.031 C 
ENDBRANCH  26  27
ENDBRANCH   5  25
BRANCH   4  30
HETATM   30  O3  UNL     1       2.891   1.728  -0.242  1.00  0.00    -0.328 OA
HETATM   31  C21 UNL     1       4.198   1.210  -0.378  1.00  0.00     0.181 C 
ENDBRANCH   4  30
TORSDOF 6
