REMARK  7 active torsions:
REMARK  status: ('A' for Active; 'I' for Inactive)
REMARK    1  A    between atoms: C2_2  and  N2_29 
REMARK    2  A    between atoms: C3_3  and  C26_27 
REMARK    3  A    between atoms: C16_16  and  C19_19 
REMARK    4  A    between atoms: C19_19  and  N1_21 
REMARK       I    between atoms: N2_29  and  C27_30 
REMARK    5  A    between atoms: C27_30  and  C28_32 
REMARK    6  A    between atoms: C28_32  and  C29_33 
REMARK    7  A    between atoms: C29_33  and  C30_34 
ROOT
HETATM    1  C1  UNL     1      -3.780   1.812  -0.695  1.00  0.00     0.029 C 
HETATM    2  C2  UNL     1      -3.855   0.451   0.017  1.00  0.00     0.110 C 
HETATM    3  C3  UNL     1      -2.765  -0.504  -0.547  1.00  0.00     0.059 C 
HETATM    4  C4  UNL     1      -1.360   0.096  -0.278  1.00  0.00     0.044 C 
HETATM    5  C5  UNL     1      -1.219   1.556  -0.646  1.00  0.00    -0.040 C 
HETATM    6  C6  UNL     1      -2.414   2.468  -0.491  1.00  0.00     0.024 C 
HETATM    7  C7  UNL     1      -0.063   2.023  -1.148  1.00  0.00    -0.009 C 
HETATM    8  C8  UNL     1       1.159   1.469  -1.012  1.00  0.00    -0.009 C 
HETATM    9  C9  UNL     1       1.563   0.635   0.206  1.00  0.00    -0.023 C 
HETATM   10  C10 UNL     1       0.595   0.070   1.220  1.00  0.00    -0.009 C 
HETATM   11  C11 UNL     1      -0.712  -0.152   1.043  1.00  0.00    -0.023 C 
HETATM   12  C12 UNL     1       2.764  -0.271  -0.115  1.00  0.00     0.019 C 
HETATM   13  C13 UNL     1       3.931   0.606  -0.669  1.00  0.00     0.009 C 
HETATM   14  C14 UNL     1       3.491   1.201  -2.013  1.00  0.00     0.026 C 
HETATM   15  C15 UNL     1       2.093   1.779  -1.939  1.00  0.00    -0.026 C 
HETATM   16  C16 UNL     1       5.104  -0.409  -0.699  1.00  0.00     0.032 C 
HETATM   17  C17 UNL     1       4.924  -1.168   0.633  1.00  0.00     0.002 C 
HETATM   18  C18 UNL     1       3.454  -0.976   1.070  1.00  0.00     0.004 C 
HETATM   19  C23 UNL     1       4.323   1.807   0.234  1.00  0.00     0.001 C 
HETATM   20  C24 UNL     1       2.216  -1.376  -1.055  1.00  0.00     0.004 C 
HETATM   21  C25 UNL     1      -2.928  -1.900   0.100  1.00  0.00     0.005 C 
ENDROOT
BRANCH   2  22
HETATM   22  N2  UNL     1      -3.644   0.620   1.462  1.00  0.00    -0.238 NA
HETATM   23  C27 UNL     1      -4.572   0.576   2.467  1.00  0.00     0.282 C 
HETATM   24  O2  UNL     1      -4.206   0.683   3.612  1.00  0.00    -0.268 OA
BRANCH  23  25
HETATM   25  C28 UNL     1      -6.054   0.464   2.107  1.00  0.00     0.232 C 
HETATM   26  O3  UNL     1      -6.416   1.447   1.155  1.00  0.00    -0.213 OA
BRANCH  25  27
HETATM   27  C29 UNL     1      -6.605  -0.921   1.736  1.00  0.00     0.040 C 
HETATM   28  C32 UNL     1      -5.939  -2.032   2.571  1.00  0.00     0.003 C 
BRANCH  27  29
HETATM   29  C30 UNL     1      -8.138  -1.030   1.919  1.00  0.00     0.003 C 
HETATM   30  C31 UNL     1      -8.972  -0.042   1.094  1.00  0.00     0.000 C 
ENDBRANCH  27  29
ENDBRANCH  25  27
ENDBRANCH  23  25
ENDBRANCH   2  22
BRANCH   3  31
HETATM   31  C26 UNL     1      -2.961  -0.686  -2.071  1.00  0.00     0.185 C 
HETATM   32  O1  UNL     1      -2.166  -1.740  -2.579  1.00  0.00    -0.221 OA
ENDBRANCH   3  31
BRANCH  16  33
HETATM   33  C19 UNL     1       6.485   0.072  -1.229  1.00  0.00     0.220 C 
HETATM   34  C20 UNL     1       6.805  -0.607  -2.586  1.00  0.00     0.035 C 
BRANCH  33  35
HETATM   35  N1  UNL     1       7.685   0.035  -0.387  1.00  0.00     0.139 N 
HETATM   36  C21 UNL     1       7.671   0.999   0.703  1.00  0.00     0.285 C 
HETATM   37  C22 UNL     1       8.085  -1.284   0.079  1.00  0.00     0.285 C 
ENDBRANCH  33  35
ENDBRANCH  16  33
TORSDOF 7
