REMARK  7 active torsions:
REMARK  status: ('A' for Active; 'I' for Inactive)
REMARK    1  A    between atoms: C2_2  and  N2_29 
REMARK    2  A    between atoms: C3_3  and  C26_27 
REMARK    3  A    between atoms: C15_15  and  C18_18 
REMARK    4  A    between atoms: C18_18  and  N1_20 
REMARK       I    between atoms: N2_29  and  C27_30 
REMARK    5  A    between atoms: C27_30  and  C28_32 
REMARK    6  A    between atoms: C30_34  and  O5_41 
REMARK    7  A    between atoms: C32_36  and  O3_38 
ROOT
HETATM    1  C1  UNL     1      -3.060  -0.221  -0.430  1.00  0.00     0.022 C 
HETATM    2  C2  UNL     1      -2.490  -1.036   0.751  1.00  0.00     0.087 C 
HETATM    3  C3  UNL     1      -1.447  -2.100   0.261  1.00  0.00     0.053 C 
HETATM    4  C4  UNL     1      -0.578  -1.466  -0.879  1.00  0.00     0.026 C 
HETATM    5  C5  UNL     1      -0.563   0.059  -0.823  1.00  0.00     0.004 A 
HETATM    6  C6  UNL     1      -1.955   0.633  -1.089  1.00  0.00     0.002 C 
HETATM    7  C7  UNL     1       0.701   0.840  -1.160  1.00  0.00     0.004 A 
HETATM    8  C8  UNL     1       2.039   0.105  -1.330  1.00  0.00     0.022 C 
HETATM    9  C9  UNL     1       1.924  -1.393  -1.253  1.00  0.00    -0.031 C 
HETATM   10  C10 UNL     1       0.790  -2.074  -1.048  1.00  0.00    -0.031 C 
HETATM   11  C11 UNL     1       2.812   0.563  -2.582  1.00  0.00     0.004 C 
HETATM   12  C12 UNL     1       2.985   2.113  -2.527  1.00  0.00     0.002 C 
HETATM   13  C13 UNL     1       1.604   2.727  -2.810  1.00  0.00     0.000 C 
HETATM   14  C14 UNL     1       0.562   2.249  -1.777  1.00  0.00     0.000 C 
HETATM   15  C15 UNL     1       4.054   2.368  -3.624  1.00  0.00     0.031 C 
HETATM   16  C16 UNL     1       4.969   1.123  -3.615  1.00  0.00     0.002 C 
HETATM   17  C17 UNL     1       4.279   0.095  -2.695  1.00  0.00     0.000 C 
HETATM   18  C22 UNL     1       3.458   2.644  -1.151  1.00  0.00     0.000 C 
HETATM   19  C23 UNL     1       2.050   0.003  -3.813  1.00  0.00     0.000 C 
HETATM   20  C24 UNL     1       0.212   0.734   0.276  1.00  0.00     0.001 A 
HETATM   21  C25 UNL     1      -0.580  -2.530   1.468  1.00  0.00     0.005 C 
ENDROOT
BRANCH   2  22
HETATM   22  N2  UNL     1      -3.457  -1.512   1.762  1.00  0.00    -0.316 N 
HETATM   23  C27 UNL     1      -3.196  -1.342   3.114  1.00  0.00     0.257 C 
HETATM   24  O2  UNL     1      -2.367  -0.522   3.446  1.00  0.00    -0.267 OA
HETATM   25  C36 UNL     1      -4.718  -2.050   1.246  1.00  0.00     0.129 C 
BRANCH  23  26
HETATM   26  C28 UNL     1      -3.925  -1.904   4.124  1.00  0.00     0.060 A 
HETATM   27  C29 UNL     1      -4.540  -3.092   4.009  1.00  0.00     0.031 A 
HETATM   28  C30 UNL     1      -5.259  -3.636   5.007  1.00  0.00     0.121 A 
HETATM   29  C31 UNL     1      -5.275  -3.006   6.199  1.00  0.00     0.175 A 
HETATM   30  C32 UNL     1      -4.660  -1.817   6.374  1.00  0.00     0.121 A 
HETATM   31  O4  UNL     1      -5.935  -3.566   7.252  1.00  0.00    -0.186 OA
HETATM   32  C33 UNL     1      -3.992  -1.299   5.325  1.00  0.00     0.031 A 
BRANCH  28  33
HETATM   33  O5  UNL     1      -5.819  -4.880   4.859  1.00  0.00    -0.326 OA
HETATM   34  C35 UNL     1      -7.184  -4.848   4.505  1.00  0.00     0.181 C 
ENDBRANCH  28  33
BRANCH  30  35
HETATM   35  O3  UNL     1      -4.741  -1.236   7.619  1.00  0.00    -0.326 OA
HETATM   36  C34 UNL     1      -4.051  -0.035   7.873  1.00  0.00     0.181 C 
ENDBRANCH  30  35
ENDBRANCH  23  26
ENDBRANCH   2  22
BRANCH   3  37
HETATM   37  C26 UNL     1      -2.188  -3.354  -0.247  1.00  0.00     0.184 C 
HETATM   38  O1  UNL     1      -1.312  -4.287  -0.845  1.00  0.00    -0.221 OA
ENDBRANCH   3  37
BRANCH  15  39
HETATM   39  C18 UNL     1       4.680   3.786  -3.803  1.00  0.00     0.219 C 
HETATM   40  C19 UNL     1       4.348   4.284  -5.234  1.00  0.00     0.035 C 
BRANCH  39  41
HETATM   41  N1  UNL     1       6.120   3.873  -3.510  1.00  0.00     0.139 N 
HETATM   42  C20 UNL     1       6.424   3.726  -2.090  1.00  0.00     0.285 C 
HETATM   43  C21 UNL     1       6.727   5.122  -3.959  1.00  0.00     0.285 C 
ENDBRANCH  39  41
ENDBRANCH  15  39
TORSDOF 7
