REMARK  2 active torsions:
REMARK  status: ('A' for Active; 'I' for Inactive)
REMARK    1  A    between atoms: C2_2  and  N2_26 
REMARK    2  A    between atoms: C15_15  and  C18_18 
ROOT
HETATM    1  C1  UNL     1      -3.269  -0.396  -2.066  1.00  0.00     0.033 C 
HETATM    2  C2  UNL     1      -3.315  -1.933  -1.958  1.00  0.00     0.220 C 
HETATM    3  C3  UNL     1      -1.897  -2.587  -1.837  1.00  0.00     0.033 C 
HETATM    4  C4  UNL     1      -1.128  -1.899  -0.665  1.00  0.00     0.024 C 
HETATM    5  C5  UNL     1      -1.097  -0.375  -0.787  1.00  0.00     0.004 A 
HETATM    6  C6  UNL     1      -2.487   0.232  -0.907  1.00  0.00     0.002 C 
HETATM    7  C7  UNL     1      -0.013   0.408  -0.070  1.00  0.00     0.004 A 
HETATM    8  C8  UNL     1       0.919  -0.404   0.830  1.00  0.00     0.022 C 
HETATM    9  C9  UNL     1       1.181  -1.783   0.290  1.00  0.00    -0.031 C 
HETATM   10  C10 UNL     1       0.248  -2.463  -0.391  1.00  0.00    -0.031 C 
HETATM   11  C11 UNL     1       2.190   0.409   1.161  1.00  0.00     0.004 C 
HETATM   12  C12 UNL     1       1.799   1.730   1.907  1.00  0.00     0.002 C 
HETATM   13  C13 UNL     1       0.966   2.587   0.934  1.00  0.00     0.000 C 
HETATM   14  C14 UNL     1      -0.281   1.829   0.433  1.00  0.00     0.000 C 
HETATM   15  C15 UNL     1       3.192   2.275   2.316  1.00  0.00     0.037 C 
HETATM   16  C16 UNL     1       3.957   0.988   2.721  1.00  0.00     0.002 C 
HETATM   17  C17 UNL     1       3.174  -0.219   2.163  1.00  0.00     0.000 C 
HETATM   18  C20 UNL     1       0.974   1.532   3.205  1.00  0.00     0.000 C 
HETATM   19  C21 UNL     1       2.985   0.605  -0.161  1.00  0.00     0.000 C 
HETATM   20  C22 UNL     1       0.036   0.238  -1.575  1.00  0.00     0.001 A 
HETATM   21  C23 UNL     1      -2.100  -4.092  -1.519  1.00  0.00     0.002 C 
HETATM   22  C24 UNL     1      -1.075  -2.495  -3.139  1.00  0.00     0.002 C 
ENDROOT
BRANCH   2  23
HETATM   23  N2  UNL     1      -4.177  -2.570  -2.963  1.00  0.00     0.139 N 
HETATM   24  C25 UNL     1      -5.565  -2.636  -2.518  1.00  0.00     0.285 C 
HETATM   25  C26 UNL     1      -4.137  -1.958  -4.286  1.00  0.00     0.285 C 
ENDBRANCH   2  23
BRANCH  15  26
HETATM   26  C18 UNL     1       3.324   3.382   3.383  1.00  0.00     0.302 C 
HETATM   27  C19 UNL     1       2.649   4.710   3.012  1.00  0.00     0.041 C 
HETATM   28  N1  UNL     1       4.757   3.657   3.611  1.00  0.00     0.616 N 
ENDBRANCH  15  26
TORSDOF 2
