REMARK  2 active torsions:
REMARK  status: ('A' for Active; 'I' for Inactive)
REMARK    1  A    between atoms: C15_15  and  C18_18 
REMARK    2  A    between atoms: C18_18  and  N1_20 
ROOT
HETATM    1  C1  UNL     1      -4.420  -0.945  -2.657  1.00  0.00     0.000 C 
HETATM    2  C2  UNL     1      -4.456  -2.466  -2.458  1.00  0.00     0.000 C 
HETATM    3  C3  UNL     1      -3.055  -3.127  -2.471  1.00  0.00     0.004 C 
HETATM    4  C4  UNL     1      -2.171  -2.431  -1.402  1.00  0.00     0.022 C 
HETATM    5  C5  UNL     1      -2.138  -0.907  -1.552  1.00  0.00     0.004 A 
HETATM    6  C6  UNL     1      -3.524  -0.278  -1.607  1.00  0.00     0.000 C 
HETATM    7  C7  UNL     1      -1.018  -0.146  -0.866  1.00  0.00     0.004 A 
HETATM    8  C8  UNL     1      -0.069  -0.992  -0.016  1.00  0.00     0.022 C 
HETATM    9  C9  UNL     1       0.192  -2.341  -0.630  1.00  0.00    -0.031 C 
HETATM   10  C10 UNL     1      -0.780  -3.005  -1.270  1.00  0.00    -0.031 C 
HETATM   11  C11 UNL     1       1.193  -0.185   0.357  1.00  0.00     0.004 C 
HETATM   12  C12 UNL     1       0.800   1.091   1.180  1.00  0.00     0.002 C 
HETATM   13  C13 UNL     1      -0.028   1.987   0.236  1.00  0.00     0.000 C 
HETATM   14  C14 UNL     1      -1.271   1.259  -0.317  1.00  0.00     0.000 C 
HETATM   15  C15 UNL     1       2.189   1.627   1.646  1.00  0.00     0.031 C 
HETATM   16  C16 UNL     1       2.938   0.305   1.961  1.00  0.00     0.002 C 
HETATM   17  C17 UNL     1       2.168  -0.870   1.326  1.00  0.00     0.000 C 
HETATM   18  C22 UNL     1      -0.049   0.798   2.447  1.00  0.00     0.000 C 
HETATM   19  C23 UNL     1       1.987   0.085  -0.951  1.00  0.00     0.000 C 
HETATM   20  C24 UNL     1      -1.029  -0.294  -2.375  1.00  0.00     0.001 A 
HETATM   21  C25 UNL     1      -3.258  -4.626  -2.146  1.00  0.00     0.000 C 
HETATM   22  C26 UNL     1      -2.429  -3.022  -3.877  1.00  0.00     0.000 C 
ENDROOT
BRANCH  15  23
HETATM   23  C18 UNL     1       2.280   2.703   2.766  1.00  0.00     0.219 C 
HETATM   24  C19 UNL     1       1.408   3.944   2.462  1.00  0.00     0.035 C 
BRANCH  23  25
HETATM   25  N1  UNL     1       3.619   3.200   3.123  1.00  0.00     0.139 N 
HETATM   26  C20 UNL     1       4.464   2.256   3.838  1.00  0.00     0.285 C 
HETATM   27  C21 UNL     1       4.358   3.776   2.008  1.00  0.00     0.285 C 
ENDBRANCH  23  25
ENDBRANCH  15  23
TORSDOF 2
