REMARK  6 active torsions:
REMARK  status: ('A' for Active; 'I' for Inactive)
REMARK    1  A    between atoms: C1_1  and  C22_27 
REMARK    2  A    between atoms: C2_2  and  O4_25 
REMARK    3  A    between atoms: C3_3  and  C16_20 
REMARK    4  A    between atoms: C6_6  and  O1_7 
REMARK    5  A    between atoms: C16_20  and  C17_21 
REMARK    6  A    between atoms: C22_27  and  C23_28 
ROOT
HETATM    1  C1  UNL     1       0.930  -0.248   1.014  1.00  0.00     0.027 C 
HETATM    2  C2  UNL     1       0.994   0.308  -0.212  1.00  0.00     0.090 C 
HETATM    3  C3  UNL     1      -0.162   0.529  -0.883  1.00  0.00     0.020 C 
HETATM    4  C4  UNL     1      -1.348  -0.008  -0.479  1.00  0.00     0.063 A 
HETATM    5  C5  UNL     1      -1.365  -0.544   0.766  1.00  0.00     0.076 A 
HETATM    6  C6  UNL     1      -0.237  -0.719   1.503  1.00  0.00     0.097 C 
HETATM    7  C8  UNL     1      -2.561  -0.951   1.284  1.00  0.00     0.200 A 
HETATM    8  C9  UNL     1      -3.696  -0.832   0.545  1.00  0.00     0.057 A 
HETATM    9  C10 UNL     1      -3.642  -0.344  -0.712  1.00  0.00     0.089 A 
HETATM   10  N1  UNL     1      -2.468  -0.012  -1.117  1.00  0.00    -0.324 N 
HETATM   11  C11 UNL     1      -2.374   0.175  -2.603  1.00  0.00     0.131 C 
HETATM   12  C12 UNL     1      -4.822  -0.266  -1.390  1.00  0.00     0.147 A 
HETATM   13  C13 UNL     1      -5.966  -0.675  -0.812  1.00  0.00     0.029 A 
HETATM   14  C14 UNL     1      -6.001  -1.182   0.422  1.00  0.00     0.002 A 
HETATM   15  C15 UNL     1      -4.853  -1.248   1.099  1.00  0.00     0.005 A 
HETATM   16  O2  UNL     1      -4.994   0.312  -2.613  1.00  0.00    -0.189 OA
HETATM   17  O3  UNL     1      -2.678  -1.415   2.396  1.00  0.00    -0.286 OA
ENDROOT
BRANCH   1  18
HETATM   18  C22 UNL     1       2.190  -0.327   1.879  1.00  0.00     0.056 C 
BRANCH  18  19
HETATM   19  C23 UNL     1       2.807  -1.702   1.851  1.00  0.00    -0.030 C 
HETATM   20  C24 UNL     1       3.567  -2.256   2.812  1.00  0.00    -0.048 C 
HETATM   21  C25 UNL     1       4.105  -3.660   2.669  1.00  0.00     0.026 C 
HETATM   22  C26 UNL     1       3.946  -1.567   4.101  1.00  0.00     0.026 C 
ENDBRANCH  18  19
ENDBRANCH   1  18
BRANCH   2  23
HETATM   23  O4  UNL     1       2.182   0.844  -0.662  1.00  0.00    -0.329 OA
HETATM   24  C21 UNL     1       2.957  -0.039  -1.443  1.00  0.00     0.181 C 
ENDBRANCH   2  23
BRANCH   6  25
HETATM   25  O1  UNL     1      -0.237  -1.234   2.784  1.00  0.00    -0.328 OA
HETATM   26  C7  UNL     1      -0.207  -2.646   2.871  1.00  0.00     0.181 C 
ENDBRANCH   6  25
BRANCH   3  27
HETATM   27  C16 UNL     1      -0.011   1.539  -2.029  1.00  0.00     0.055 C 
BRANCH  27  28
HETATM   28  C17 UNL     1       0.623   2.847  -1.595  1.00  0.00    -0.030 C 
HETATM   29  C18 UNL     1       1.230   3.743  -2.395  1.00  0.00    -0.048 C 
HETATM   30  C19 UNL     1       1.799   5.027  -1.838  1.00  0.00     0.026 C 
HETATM   31  C20 UNL     1       1.385   3.585  -3.889  1.00  0.00     0.026 C 
ENDBRANCH  27  28
ENDBRANCH   3  27
TORSDOF 6
