REMARK  2 active torsions:
REMARK  status: ('A' for Active; 'I' for Inactive)
REMARK    1  A    between atoms: C3_3  and  O5_21 
REMARK    2  A    between atoms: C11_12  and  O3_18 
ROOT
HETATM    1  C1  UNL     1      -2.761   1.731   0.877  1.00  0.00     0.030 A 
HETATM    2  C2  UNL     1      -2.761   0.394   0.877  1.00  0.00     0.154 A 
HETATM    3  C3  UNL     1      -1.603  -0.275   0.877  1.00  0.00     0.135 A 
HETATM    4  C4  UNL     1      -0.446   0.394   0.877  1.00  0.00     0.084 A 
HETATM    5  C5  UNL     1      -0.446   1.731   0.877  1.00  0.00     0.053 A 
HETATM    6  C6  UNL     1      -1.603   2.399   0.877  1.00  0.00     0.006 A 
HETATM    7  C7  UNL     1       0.752   2.357   0.865  1.00  0.00     0.182 C 
HETATM    8  C8  UNL     1       1.131   1.808  -0.415  1.00  0.00     0.137 C 
HETATM    9  C9  UNL     1       1.507   0.353  -0.172  1.00  0.00     0.142 C 
HETATM   10  N1  UNL     1       0.651  -0.239   0.866  1.00  0.00    -0.340 N 
HETATM   11  C10 UNL     1       1.006  -1.368   1.738  1.00  0.00     0.126 C 
HETATM   12  C11 UNL     1       1.380  -0.416  -1.451  1.00  0.00     0.118 C 
HETATM   13  C12 UNL     1       0.695   0.070  -2.490  1.00  0.00     0.153 C 
HETATM   14  C13 UNL     1      -0.097   1.102  -2.442  1.00  0.00     0.052 C 
HETATM   15  C14 UNL     1      -0.036   1.873  -1.351  1.00  0.00     0.120 C 
HETATM   16  O1  UNL     1      -1.051   2.730  -1.087  1.00  0.00    -0.194 OA
HETATM   17  O2  UNL     1       0.835  -0.557  -3.683  1.00  0.00    -0.188 OA
HETATM   18  O4  UNL     1       1.302   3.101   1.641  1.00  0.00    -0.291 OA
HETATM   19  O6  UNL     1      -3.935  -0.284   0.877  1.00  0.00    -0.188 OA
ENDROOT
BRANCH   3  20
HETATM   20  O5  UNL     1      -1.603  -1.630   0.877  1.00  0.00    -0.325 OA
HETATM   21  C16 UNL     1      -0.389  -2.331   0.877  1.00  0.00     0.182 C 
ENDBRANCH   3  20
BRANCH  12  22
HETATM   22  O3  UNL     1       1.972  -1.630  -1.556  1.00  0.00    -0.328 OA
HETATM   23  C15 UNL     1       2.118  -2.440  -0.421  1.00  0.00     0.181 C 
ENDBRANCH  12  22
TORSDOF 2
