REMARK  3 active torsions:
REMARK  status: ('A' for Active; 'I' for Inactive)
REMARK    1  A    between atoms: C12_13  and  O1_15 
REMARK    2  A    between atoms: C16_20  and  O5_25 
REMARK    3  A    between atoms: C17_21  and  O4_23 
ROOT
HETATM    1  C1  UNL     1       1.742   2.589  -1.229  1.00  0.00     0.022 C 
HETATM    2  C2  UNL     1       0.708   2.765  -0.108  1.00  0.00     0.028 C 
HETATM    3  C3  UNL     1      -0.287   1.638  -0.185  1.00  0.00    -0.023 A 
HETATM    4  C4  UNL     1       0.118   0.337  -0.523  1.00  0.00    -0.008 A 
HETATM    5  C5  UNL     1       1.642  -0.081  -0.638  1.00  0.00     0.102 C 
HETATM    6  N1  UNL     1       2.669   0.270  -1.961  1.00  0.00    -0.218 NA
HETATM    7  C6  UNL     1       1.591   1.240  -1.980  1.00  0.00     0.080 C 
HETATM    8  C7  UNL     1       3.342  -0.866  -1.594  1.00  0.00     0.244 C 
HETATM    9  C8  UNL     1       2.704  -2.133  -1.288  1.00  0.00     0.218 A 
HETATM   10  C9  UNL     1       1.603  -1.614  -0.574  1.00  0.00     0.161 A 
HETATM   11  C10 UNL     1       1.213  -2.344   0.609  1.00  0.00     0.003 C 
HETATM   12  C11 UNL     1       1.263  -1.748   1.806  1.00  0.00     0.001 C 
HETATM   13  C12 UNL     1       1.684  -0.307   1.987  1.00  0.00     0.139 C 
HETATM   14  C13 UNL     1       2.381   0.226   0.719  1.00  0.00     0.056 C 
HETATM   15  O2  UNL     1       1.502  -2.345  -1.983  1.00  0.00    -0.341 OA
HETATM   16  O3  UNL     1       4.535  -0.932  -1.791  1.00  0.00    -0.276 OA
HETATM   17  C15 UNL     1      -0.934  -0.569  -0.736  1.00  0.00     0.023 A 
HETATM   18  C16 UNL     1      -2.305  -0.309  -0.574  1.00  0.00     0.116 A 
HETATM   19  C17 UNL     1      -2.671   0.976  -0.121  1.00  0.00     0.116 A 
HETATM   20  C18 UNL     1      -1.641   1.915   0.007  1.00  0.00     0.022 A 
ENDROOT
BRANCH  13  21
HETATM   21  O1  UNL     1       0.588   0.523   2.299  1.00  0.00    -0.350 OA
HETATM   22  C14 UNL     1       0.102   0.364   3.613  1.00  0.00     0.175 C 
ENDBRANCH  13  21
BRANCH  18  23
HETATM   23  O5  UNL     1      -3.268  -1.274  -0.743  1.00  0.00    -0.326 OA
HETATM   24  C20 UNL     1      -2.892  -2.628  -0.842  1.00  0.00     0.181 C 
ENDBRANCH  18  23
BRANCH  19  25
HETATM   25  O4  UNL     1      -3.951   1.437   0.088  1.00  0.00    -0.326 OA
HETATM   26  C19 UNL     1      -5.050   0.780  -0.496  1.00  0.00     0.181 C 
ENDBRANCH  19  25
TORSDOF 3
