REMARK  25 active torsions:
REMARK  status: ('A' for Active; 'I' for Inactive)
REMARK    1  A    between atoms: C1_1  and  O3_20 
REMARK    2  A    between atoms: C5_6  and  C6_7 
REMARK    3  A    between atoms: C6_7  and  C7_8 
REMARK    4  A    between atoms: C7_8  and  C8_9 
REMARK    5  A    between atoms: C8_9  and  C9_10 
REMARK    6  A    between atoms: C9_10  and  C10_11 
REMARK    7  A    between atoms: C10_11  and  C11_12 
REMARK    8  A    between atoms: C11_12  and  C12_13 
REMARK    9  A    between atoms: C12_13  and  C13_14 
REMARK   10  A    between atoms: C13_14  and  C14_15 
REMARK   11  A    between atoms: C14_15  and  C15_16 
REMARK   12  A    between atoms: O3_20  and  C18_21 
REMARK   13  A    between atoms: C18_21  and  C19_23 
REMARK   14  A    between atoms: C19_23  and  C20_24 
REMARK   15  A    between atoms: C20_24  and  C21_25 
REMARK   16  A    between atoms: C23_29  and  C24_30 
REMARK   17  A    between atoms: C24_30  and  C25_31 
REMARK   18  A    between atoms: C25_31  and  C26_32 
REMARK   19  A    between atoms: C26_32  and  C27_33 
REMARK   20  A    between atoms: C27_33  and  C28_34 
REMARK   21  A    between atoms: C28_34  and  C29_35 
REMARK   22  A    between atoms: C29_35  and  C30_36 
REMARK   23  A    between atoms: C30_36  and  C31_37 
REMARK   24  A    between atoms: C31_37  and  C32_38 
REMARK   25  A    between atoms: C32_38  and  C33_39 
ROOT
HETATM    1  O3  UNL     1       0.684  -6.025  -1.106  1.00  0.00    -0.290 OA
ENDROOT
BRANCH   1   2
HETATM    2  C1  UNL     1       2.089  -5.879  -1.248  1.00  0.00     0.196 C 
HETATM    3  C2  UNL     1       2.632  -7.279  -1.491  1.00  0.00     0.113 C 
HETATM    4  O1  UNL     1       3.203  -7.773  -0.519  1.00  0.00    -0.275 OA
HETATM    5  C17 UNL     1       2.469  -7.950  -2.640  1.00  0.00     0.025 C 
HETATM    6  C3  UNL     1       3.349  -6.780   0.475  1.00  0.00     0.298 C 
HETATM    7  C4  UNL     1       2.906  -5.593  -0.006  1.00  0.00     0.071 C 
HETATM    8  O2  UNL     1       3.994  -6.967   1.481  1.00  0.00    -0.259 OA
HETATM    9  C5  UNL     1       3.274  -4.413   0.518  1.00  0.00    -0.022 C 
BRANCH   9  10
HETATM   10  C6  UNL     1       2.907  -3.048  -0.009  1.00  0.00     0.026 C 
BRANCH  10  11
HETATM   11  C7  UNL     1       4.118  -2.122  -0.213  1.00  0.00     0.005 C 
BRANCH  11  12
HETATM   12  C8  UNL     1       3.642  -0.709  -0.593  1.00  0.00     0.000 C 
BRANCH  12  13
HETATM   13  C9  UNL     1       4.784   0.312  -0.730  1.00  0.00     0.000 C 
BRANCH  13  14
HETATM   14  C10 UNL     1       4.224   1.737  -0.878  1.00  0.00     0.000 C 
BRANCH  14  15
HETATM   15  C11 UNL     1       5.321   2.811  -0.957  1.00  0.00     0.000 C 
BRANCH  15  16
HETATM   16  C12 UNL     1       4.719   4.225  -0.892  1.00  0.00     0.000 C 
BRANCH  16  17
HETATM   17  C13 UNL     1       5.787   5.328  -0.945  1.00  0.00     0.005 C 
BRANCH  17  18
HETATM   18  C14 UNL     1       5.165   6.719  -0.746  1.00  0.00     0.026 C 
BRANCH  18  19
HETATM   19  C15 UNL     1       6.209   7.805  -0.800  1.00  0.00    -0.026 C 
HETATM   20  C16 UNL     1       6.167   8.842  -1.648  1.00  0.00    -0.005 C 
ENDBRANCH  18  19
ENDBRANCH  17  18
ENDBRANCH  16  17
ENDBRANCH  15  16
ENDBRANCH  14  15
ENDBRANCH  13  14
ENDBRANCH  12  13
ENDBRANCH  11  12
ENDBRANCH  10  11
ENDBRANCH   9  10
ENDBRANCH   1   2
BRANCH   1  21
HETATM   21  C18 UNL     1      -0.102  -5.008  -0.646  1.00  0.00     0.295 C 
HETATM   22  O4  UNL     1       0.389  -4.190   0.095  1.00  0.00    -0.259 OA
BRANCH  21  23
HETATM   23  C19 UNL     1      -1.389  -4.862  -1.075  1.00  0.00     0.074 C 
HETATM   24  C23 UNL     1      -2.168  -3.820  -0.719  1.00  0.00    -0.022 C 
BRANCH  23  25
HETATM   25  C20 UNL     1      -1.972  -5.902  -2.017  1.00  0.00     0.236 C 
HETATM   26  O6  UNL     1      -1.976  -5.388  -3.349  1.00  0.00    -0.210 OA
BRANCH  25  27
HETATM   27  C21 UNL     1      -3.400  -6.303  -1.674  1.00  0.00     0.186 C 
HETATM   28  O5  UNL     1      -4.256  -6.029  -2.485  1.00  0.00    -0.293 OA
HETATM   29  C22 UNL     1      -3.672  -7.009  -0.363  1.00  0.00     0.075 C 
ENDBRANCH  25  27
ENDBRANCH  23  25
BRANCH  24  30
HETATM   30  C24 UNL     1      -1.860  -2.638   0.175  1.00  0.00     0.026 C 
BRANCH  30  31
HETATM   31  C25 UNL     1      -2.876  -1.500  -0.031  1.00  0.00     0.005 C 
BRANCH  31  32
HETATM   32  C26 UNL     1      -2.703  -0.341   0.966  1.00  0.00     0.000 C 
BRANCH  32  33
HETATM   33  C27 UNL     1      -3.721   0.780   0.691  1.00  0.00     0.000 C 
BRANCH  33  34
HETATM   34  C28 UNL     1      -3.801   1.818   1.822  1.00  0.00     0.000 C 
BRANCH  34  35
HETATM   35  C29 UNL     1      -4.868   2.885   1.519  1.00  0.00     0.000 C 
BRANCH  35  36
HETATM   36  C30 UNL     1      -5.148   3.805   2.718  1.00  0.00     0.000 C 
BRANCH  36  37
HETATM   37  C31 UNL     1      -6.266   4.815   2.405  1.00  0.00     0.005 C 
BRANCH  37  38
HETATM   38  C32 UNL     1      -6.651   5.654   3.633  1.00  0.00     0.026 C 
BRANCH  38  39
HETATM   39  C33 UNL     1      -7.775   6.609   3.311  1.00  0.00    -0.026 C 
HETATM   40  C34 UNL     1      -7.684   7.941   3.430  1.00  0.00    -0.005 C 
ENDBRANCH  38  39
ENDBRANCH  37  38
ENDBRANCH  36  37
ENDBRANCH  35  36
ENDBRANCH  34  35
ENDBRANCH  33  34
ENDBRANCH  32  33
ENDBRANCH  31  32
ENDBRANCH  30  31
ENDBRANCH  24  30
ENDBRANCH  21  23
ENDBRANCH   1  21
TORSDOF 25
