REMARK  4 active torsions:
REMARK  status: ('A' for Active; 'I' for Inactive)
REMARK    1  A    between atoms: C3_3  and  O3_9 
REMARK    2  A    between atoms: C5_6  and  C6_7 
REMARK    3  A    between atoms: O3_9  and  C7_10 
REMARK    4  A    between atoms: C8_12  and  C12_19 
ROOT
HETATM    1  C1  UNL     1      -0.232   2.953   0.836  1.00  0.00     0.160 C 
HETATM    2  C2  UNL     1      -0.580   1.463   0.718  1.00  0.00     0.120 C 
HETATM    3  C3  UNL     1       0.492   0.744  -0.098  1.00  0.00     0.247 C 
HETATM    4  O1  UNL     1       1.786   0.959   0.427  1.00  0.00    -0.304 OA
HETATM    5  C4  UNL     1       2.121   2.209   0.852  1.00  0.00     0.120 C 
HETATM    6  C5  UNL     1       1.238   3.201   1.039  1.00  0.00     0.072 C 
HETATM    7  C13 UNL     1      -1.999   1.501   0.109  1.00  0.00     0.162 C 
HETATM    8  C14 UNL     1      -2.114   2.836  -0.633  1.00  0.00     0.183 C 
HETATM    9  C15 UNL     1      -0.782   3.559  -0.450  1.00  0.00     0.071 C 
HETATM   10  O9  UNL     1      -3.143   3.615  -0.064  1.00  0.00    -0.221 OA
HETATM   11  O10 UNL     1      -2.913   1.514   1.179  1.00  0.00    -0.223 OA
HETATM   12  C16 UNL     1      -2.402   0.329  -0.776  1.00  0.00     0.036 C 
HETATM   13  O11 UNL     1      -0.940   3.510   1.924  1.00  0.00    -0.221 OA
ENDROOT
BRANCH   3  14
HETATM   14  O3  UNL     1       0.340  -0.665  -0.006  1.00  0.00    -0.304 OA
BRANCH  14  15
HETATM   15  C7  UNL     1       1.272  -1.404  -0.776  1.00  0.00     0.272 C 
HETATM   16  O4  UNL     1       0.589  -2.201  -1.722  1.00  0.00    -0.326 OA
HETATM   17  C8  UNL     1       0.043  -3.413  -1.275  1.00  0.00     0.184 C 
HETATM   18  C9  UNL     1       1.016  -4.237  -0.444  1.00  0.00     0.215 C 
HETATM   19  C10 UNL     1       1.664  -3.442   0.669  1.00  0.00     0.220 C 
HETATM   20  O7  UNL     1       2.029  -4.750  -1.282  1.00  0.00    -0.218 OA
HETATM   21  C11 UNL     1       2.248  -2.169   0.093  1.00  0.00     0.241 C 
HETATM   22  O6  UNL     1       0.715  -3.133   1.661  1.00  0.00    -0.218 OA
HETATM   23  O5  UNL     1       3.373  -2.501  -0.691  1.00  0.00    -0.215 OA
BRANCH  17  24
HETATM   24  C12 UNL     1      -1.326  -3.247  -0.631  1.00  0.00     0.214 C 
HETATM   25  O8  UNL     1      -2.252  -2.776  -1.591  1.00  0.00    -0.218 OA
ENDBRANCH  17  24
ENDBRANCH  14  15
ENDBRANCH   3  14
BRANCH   6  26
HETATM   26  C6  UNL     1       1.665   4.425   1.441  1.00  0.00     0.234 C 
HETATM   27  O2  UNL     1       0.885   5.325   1.640  1.00  0.00    -0.283 OA
ENDBRANCH   6  26
TORSDOF 4
