REMARK  1 active torsions:
REMARK  status: ('A' for Active; 'I' for Inactive)
REMARK    1  A    between atoms: C10_10  and  C11_11 
ROOT
HETATM    1  C1  UNL     1       1.968   0.630  -2.184  1.00  0.00     0.033 C 
HETATM    2  C2  UNL     1       1.018   1.752  -1.763  1.00  0.00     0.155 C 
HETATM    3  C3  UNL     1      -0.258   1.159  -1.173  1.00  0.00     0.180 C 
HETATM    4  C4  UNL     1      -0.006   0.208   0.015  1.00  0.00     0.035 C 
HETATM    5  C5  UNL     1       0.959  -0.924  -0.416  1.00  0.00     0.031 C 
HETATM    6  C6  UNL     1       2.249  -0.331  -1.022  1.00  0.00     0.005 C 
HETATM    7  C7  UNL     1       1.261  -1.951   0.698  1.00  0.00     0.127 C 
HETATM    8  C8  UNL     1       0.089  -2.096   1.676  1.00  0.00     0.030 C 
HETATM    9  C9  UNL     1      -1.241  -1.782   0.988  1.00  0.00     0.003 C 
HETATM   10  C10 UNL     1      -1.339  -0.279   0.654  1.00  0.00     0.003 C 
HETATM   11  O1  UNL     1       2.373  -1.535   1.448  1.00  0.00    -0.226 OA
HETATM   12  C14 UNL     1       1.612  -3.320   0.099  1.00  0.00     0.033 C 
HETATM   13  O2  UNL     1      -0.969   0.485  -2.187  1.00  0.00    -0.221 OA
HETATM   14  O3  UNL     1       1.646   2.527  -0.773  1.00  0.00    -0.223 OA
HETATM   15  C15 UNL     1       0.735   2.691  -2.940  1.00  0.00     0.036 C 
ENDROOT
BRANCH  10  16
HETATM   16  C11 UNL     1      -1.803   0.575   1.872  1.00  0.00     0.000 C 
HETATM   17  C12 UNL     1      -1.849   2.089   1.590  1.00  0.00     0.000 C 
HETATM   18  C13 UNL     1      -3.199   0.165   2.390  1.00  0.00     0.000 C 
ENDBRANCH  10  16
TORSDOF 1
