REMARK  6 active torsions:
REMARK  status: ('A' for Active; 'I' for Inactive)
REMARK    1  A    between atoms: C6_6  and  O1_7 
REMARK    2  A    between atoms: O1_7  and  C7_8 
REMARK    3  A    between atoms: C11_13  and  O5_19 
REMARK    4  A    between atoms: C12_14  and  O3_15 
REMARK    5  A    between atoms: O3_15  and  C13_16 
REMARK    6  A    between atoms: O5_19  and  C15_20 
ROOT
HETATM    1  C1  UNL     1       1.094   0.079  -1.331  1.00  0.00     0.030 C 
HETATM    2  C2  UNL     1       1.891  -0.545   0.373  1.00  0.00     0.005 C 
HETATM    3  C3  UNL     1       0.599  -0.910   1.812  1.00  0.00     0.029 C 
HETATM    4  C4  UNL     1      -1.014  -0.780   1.100  1.00  0.00     0.157 C 
HETATM    5  C5  UNL     1      -1.375   0.423   0.066  1.00  0.00     0.058 C 
HETATM    6  C6  UNL     1      -0.625   0.389  -1.411  1.00  0.00     0.127 C 
HETATM    7  C9  UNL     1      -0.592   1.517   0.768  1.00  0.00     0.032 C 
HETATM    8  C10 UNL     1       0.593   0.628   0.387  1.00  0.00    -0.014 C 
HETATM    9  C11 UNL     1       0.332  -1.343  -0.132  1.00  0.00     0.173 C 
HETATM   10  C12 UNL     1      -1.040  -1.932   0.167  1.00  0.00     0.183 C 
HETATM   11  C17 UNL     1       1.951   1.684  -0.032  1.00  0.00    -0.004 C 
HETATM   12  C18 UNL     1       1.921   3.079   0.408  1.00  0.00     0.020 A 
HETATM   13  C19 UNL     1       0.759   3.718   0.674  1.00  0.00     0.078 A 
HETATM   14  C20 UNL     1      -0.572   3.046   0.473  1.00  0.00     0.056 C 
HETATM   15  O7  UNL     1       1.011   5.062   0.784  1.00  0.00    -0.309 OA
HETATM   16  C21 UNL     1       2.355   5.239   0.601  1.00  0.00     0.122 A 
HETATM   17  C22 UNL     1       2.983   4.043   0.402  1.00  0.00     0.028 A 
HETATM   18  C23 UNL     1       3.074   1.459  -0.790  1.00  0.00    -0.001 C 
HETATM   19  C24 UNL     1      -2.830   0.945   0.214  1.00  0.00     0.005 C 
HETATM   20  O8  UNL     1      -2.063  -1.089   1.976  1.00  0.00    -0.223 OA
HETATM   21  C25 UNL     1       0.448  -2.230   2.709  1.00  0.00     0.003 C 
HETATM   22  C26 UNL     1       0.721   0.010   3.136  1.00  0.00     0.003 C 
ENDROOT
BRANCH   6  23
HETATM   23  O1  UNL     1      -0.937   1.622  -1.992  1.00  0.00    -0.304 OA
BRANCH  23  24
HETATM   24  C7  UNL     1      -2.021   1.958  -2.743  1.00  0.00     0.272 C 
HETATM   25  O2  UNL     1      -2.132   3.086  -3.159  1.00  0.00    -0.264 OA
HETATM   26  C8  UNL     1      -3.144   0.963  -3.000  1.00  0.00     0.106 C 
ENDBRANCH  23  24
ENDBRANCH   6  23
BRANCH  10  27
HETATM   27  O3  UNL     1      -1.879  -1.913  -0.950  1.00  0.00    -0.299 OA
BRANCH  27  28
HETATM   28  C13 UNL     1      -2.313  -3.065  -1.513  1.00  0.00     0.273 C 
HETATM   29  C14 UNL     1      -2.936  -2.713  -2.855  1.00  0.00     0.106 C 
HETATM   30  O4  UNL     1      -2.151  -4.179  -1.087  1.00  0.00    -0.264 OA
ENDBRANCH  27  28
ENDBRANCH  10  27
BRANCH   9  31
HETATM   31  O5  UNL     1       1.130  -2.616   0.325  1.00  0.00    -0.297 OA
BRANCH  31  32
HETATM   32  C15 UNL     1       2.455  -3.039   0.295  1.00  0.00     0.273 C 
HETATM   33  C16 UNL     1       3.095  -3.224   1.686  1.00  0.00     0.106 C 
HETATM   34  O6  UNL     1       3.123  -3.161  -0.713  1.00  0.00    -0.264 OA
ENDBRANCH  31  32
ENDBRANCH   9  31
TORSDOF 6
