REMARK  6 active torsions:
REMARK  status: ('A' for Active; 'I' for Inactive)
REMARK    1  A    between atoms: C2_2  and  O7_30 
REMARK    2  A    between atoms: C6_6  and  O1_7 
REMARK    3  A    between atoms: O1_7  and  C7_8 
REMARK    4  A    between atoms: C13_15  and  C19_22 
REMARK    5  A    between atoms: C19_22  and  O5_24 
REMARK    6  A    between atoms: O7_30  and  C24_31 
ROOT
HETATM    1  C1  UNL     1       1.482  -0.817  -1.133  1.00  0.00     0.024 C 
HETATM    2  C2  UNL     1       0.825  -1.824   0.182  1.00  0.00     0.080 C 
HETATM    3  C3  UNL     1      -0.899  -1.949   0.507  1.00  0.00     0.066 C 
HETATM    4  C4  UNL     1      -1.918  -0.952  -0.574  1.00  0.00     0.134 C 
HETATM    5  C5  UNL     1      -1.258   0.384  -1.642  1.00  0.00     0.056 C 
HETATM    6  C6  UNL     1       0.515   0.273  -2.155  1.00  0.00     0.150 C 
HETATM    7  C9  UNL     1      -1.060   1.389  -0.595  1.00  0.00     0.012 C 
HETATM    8  C10 UNL     1      -0.223   0.152  -0.199  1.00  0.00     0.014 C 
HETATM    9  C11 UNL     1      -0.528  -1.388  -1.476  1.00  0.00     0.003 C 
HETATM   10  C12 UNL     1      -1.982  -1.853  -1.723  1.00  0.00     0.031 C 
HETATM   11  C13 UNL     1       0.971   1.105   0.502  1.00  0.00     0.110 C 
HETATM   12  C14 UNL     1       0.395   2.389   1.127  1.00  0.00     0.008 A 
HETATM   13  C15 UNL     1      -0.926   2.747   1.195  1.00  0.00     0.074 A 
HETATM   14  C16 UNL     1      -1.983   1.963   0.471  1.00  0.00     0.051 C 
HETATM   15  O3  UNL     1      -1.073   3.977   1.765  1.00  0.00    -0.310 OA
HETATM   16  C17 UNL     1       0.184   4.409   2.064  1.00  0.00     0.122 A 
HETATM   17  C18 UNL     1       1.118   3.489   1.696  1.00  0.00     0.025 A 
HETATM   18  C21 UNL     1      -2.182   0.936  -2.738  1.00  0.00     0.005 C 
HETATM   19  O6  UNL     1      -3.206  -0.735  -0.088  1.00  0.00    -0.226 OA
HETATM   20  C22 UNL     1      -1.189  -3.496   0.442  1.00  0.00     0.009 C 
HETATM   21  C23 UNL     1      -1.377  -1.719   1.984  1.00  0.00     0.009 C 
ENDROOT
BRANCH   2  22
HETATM   22  O7  UNL     1       1.540  -1.707   1.373  1.00  0.00    -0.281 OA
BRANCH  22  23
HETATM   23  C24 UNL     1       1.972  -2.814   2.048  1.00  0.00     0.276 C 
HETATM   24  C25 UNL     1       2.731  -2.420   3.299  1.00  0.00     0.107 C 
HETATM   25  O8  UNL     1       1.790  -3.963   1.714  1.00  0.00    -0.264 OA
ENDBRANCH  22  23
ENDBRANCH   2  22
BRANCH   6  26
HETATM   26  O1  UNL     1       1.166   1.509  -2.318  1.00  0.00    -0.300 OA
BRANCH  26  27
HETATM   27  C7  UNL     1       1.315   2.210  -3.481  1.00  0.00     0.273 C 
HETATM   28  O2  UNL     1       1.839   3.305  -3.494  1.00  0.00    -0.264 OA
HETATM   29  C8  UNL     1       0.825   1.578  -4.771  1.00  0.00     0.106 C 
ENDBRANCH  26  27
ENDBRANCH   6  26
BRANCH  11  30
HETATM   30  C19 UNL     1       2.062   0.695   1.519  1.00  0.00     0.276 C 
HETATM   31  O4  UNL     1       3.209   0.532   1.148  1.00  0.00    -0.264 OA
BRANCH  30  32
HETATM   32  O5  UNL     1       1.791   0.642   2.861  1.00  0.00    -0.299 OA
HETATM   33  C20 UNL     1       0.544   0.843   3.475  1.00  0.00     0.184 C 
ENDBRANCH  30  32
ENDBRANCH  11  30
TORSDOF 6
