REMARK  2 active torsions:
REMARK  status: ('A' for Active; 'I' for Inactive)
REMARK    1  A    between atoms: C10_11  and  O2_12 
REMARK    2  A    between atoms: O2_12  and  C11_13 
ROOT
HETATM    1  C1  UNL     1      -1.180  -0.734  -2.795  1.00  0.00     0.005 C 
HETATM    2  C2  UNL     1      -0.256  -1.319  -1.690  1.00  0.00     0.029 C 
HETATM    3  C3  UNL     1      -0.851  -1.015  -0.257  1.00  0.00     0.156 C 
HETATM    4  C4  UNL     1      -1.380   0.480  -0.064  1.00  0.00     0.057 C 
HETATM    5  C5  UNL     1      -2.180   0.953  -1.296  1.00  0.00     0.154 C 
HETATM    6  C6  UNL     1      -1.455   0.758  -2.615  1.00  0.00     0.033 C 
HETATM    7  O1  UNL     1      -2.585   2.297  -1.183  1.00  0.00    -0.223 OA
HETATM    8  C7  UNL     1      -0.315   1.524   0.430  1.00  0.00     0.014 C 
HETATM    9  C8  UNL     1       0.661   0.898   1.425  1.00  0.00     0.044 C 
HETATM   10  C9  UNL     1       1.134  -0.518   1.229  1.00  0.00     0.155 C 
HETATM   11  C10 UNL     1      -0.025  -1.463   0.995  1.00  0.00     0.180 C 
HETATM   12  O4  UNL     1       1.952  -0.702   2.360  1.00  0.00    -0.301 OA
HETATM   13  C13 UNL     1       2.525   0.521   2.666  1.00  0.00     0.276 C 
HETATM   14  C14 UNL     1       2.064   1.486   1.588  1.00  0.00     0.113 C 
HETATM   15  C15 UNL     1       1.878   2.955   1.614  1.00  0.00     0.008 A 
HETATM   16  C16 UNL     1       1.115   3.516   0.630  1.00  0.00     0.074 A 
HETATM   17  C17 UNL     1       0.365   2.659  -0.376  1.00  0.00     0.051 C 
HETATM   18  O5  UNL     1       1.077   4.868   0.808  1.00  0.00    -0.310 OA
HETATM   19  C18 UNL     1       1.850   5.135   1.906  1.00  0.00     0.122 A 
HETATM   20  C19 UNL     1       2.376   3.998   2.447  1.00  0.00     0.025 A 
HETATM   21  O6  UNL     1       3.268   0.749   3.593  1.00  0.00    -0.264 OA
HETATM   22  C20 UNL     1      -2.469   0.482   1.081  1.00  0.00     0.005 C 
HETATM   23  O7  UNL     1      -2.015  -1.815  -0.217  1.00  0.00    -0.223 OA
HETATM   24  C21 UNL     1      -0.175  -2.836  -2.036  1.00  0.00     0.003 C 
HETATM   25  C22 UNL     1       1.166  -0.782  -1.972  1.00  0.00     0.003 C 
ENDROOT
BRANCH  11  26
HETATM   26  O2  UNL     1       0.519  -2.748   0.912  1.00  0.00    -0.299 OA
BRANCH  26  27
HETATM   27  C11 UNL     1      -0.262  -3.817   1.221  1.00  0.00     0.273 C 
HETATM   28  C12 UNL     1       0.563  -5.086   1.269  1.00  0.00     0.106 C 
HETATM   29  O3  UNL     1      -1.451  -3.758   1.432  1.00  0.00    -0.264 OA
ENDBRANCH  26  27
ENDBRANCH  11  26
TORSDOF 2
