REMARK  2 active torsions:
REMARK  status: ('A' for Active; 'I' for Inactive)
REMARK    1  A    between atoms: C6_6  and  O1_7 
REMARK    2  A    between atoms: O1_7  and  C7_8 
ROOT
HETATM    1  C1  UNL     1       1.591  -1.205  -0.808  1.00  0.00    -0.001 C 
HETATM    2  C2  UNL     1       1.002  -2.046   0.605  1.00  0.00    -0.026 C 
HETATM    3  C3  UNL     1      -0.623  -2.025   1.145  1.00  0.00     0.045 C 
HETATM    4  C4  UNL     1      -1.736  -1.048   0.117  1.00  0.00     0.139 C 
HETATM    5  C5  UNL     1      -1.084   0.192  -1.121  1.00  0.00     0.060 C 
HETATM    6  C6  UNL     1       0.614  -0.162  -1.807  1.00  0.00     0.148 C 
HETATM    7  C9  UNL     1      -0.637   1.260  -0.220  1.00  0.00     0.032 C 
HETATM    8  C10 UNL     1       0.032  -0.081   0.146  1.00  0.00    -0.019 C 
HETATM    9  C11 UNL     1      -0.564  -1.673  -0.965  1.00  0.00     0.103 C 
HETATM   10  C12 UNL     1      -2.060  -2.031  -0.911  1.00  0.00     0.084 C 
HETATM   11  O3  UNL     1       0.065  -2.942  -1.247  1.00  0.00    -0.195 OA
HETATM   12  C13 UNL     1       1.337   0.609   0.920  1.00  0.00     0.044 C 
HETATM   13  C14 UNL     1       0.767   1.540   2.013  1.00  0.00     0.002 A 
HETATM   14  C15 UNL     1      -0.447   2.172   1.979  1.00  0.00     0.074 A 
HETATM   15  C16 UNL     1      -1.429   2.002   0.857  1.00  0.00     0.055 C 
HETATM   16  O4  UNL     1      -0.646   2.900   3.115  1.00  0.00    -0.310 OA
HETATM   17  C17 UNL     1       0.463   2.714   3.885  1.00  0.00     0.122 A 
HETATM   18  C18 UNL     1       1.359   1.895   3.267  1.00  0.00     0.024 A 
HETATM   19  C19 UNL     1       2.352   1.603   0.282  1.00  0.00     0.009 C 
HETATM   20  C20 UNL     1      -2.097   0.738  -2.136  1.00  0.00     0.006 C 
HETATM   21  O5  UNL     1      -2.904  -0.682   0.784  1.00  0.00    -0.225 OA
HETATM   22  C21 UNL     1      -1.120  -3.499   1.371  1.00  0.00     0.007 C 
HETATM   23  C22 UNL     1      -0.674  -1.590   2.665  1.00  0.00     0.007 C 
ENDROOT
BRANCH   6  24
HETATM   24  O1  UNL     1       1.348   0.971  -2.181  1.00  0.00    -0.300 OA
BRANCH  24  25
HETATM   25  C7  UNL     1       1.049   1.620  -3.340  1.00  0.00     0.273 C 
HETATM   26  C8  UNL     1       1.912   2.858  -3.474  1.00  0.00     0.106 C 
HETATM   27  O2  UNL     1       0.208   1.281  -4.141  1.00  0.00    -0.264 OA
ENDBRANCH  24  25
ENDBRANCH   6  24
TORSDOF 2
