REMARK  1 active torsions:
REMARK  status: ('A' for Active; 'I' for Inactive)
REMARK    1  A    between atoms: C13_14  and  C15_16 
ROOT
HETATM    1  C1  UNL     1      -3.980  -0.079  -1.003  1.00  0.00     0.172 C 
HETATM    2  C2  UNL     1      -4.103  -1.352  -0.258  1.00  0.00     0.029 C 
HETATM    3  C3  UNL     1      -3.048  -1.952   0.324  1.00  0.00    -0.041 C 
HETATM    4  C4  UNL     1      -1.655  -1.366   0.258  1.00  0.00     0.019 C 
HETATM    5  C5  UNL     1      -1.671   0.165   0.080  1.00  0.00     0.020 C 
HETATM    6  C6  UNL     1      -2.614   0.581  -1.063  1.00  0.00     0.070 C 
HETATM    7  C7  UNL     1      -0.221   0.734   0.069  1.00  0.00     0.081 C 
HETATM    8  C8  UNL     1       0.734  -0.001  -0.914  1.00  0.00     0.009 C 
HETATM    9  C9  UNL     1       0.626  -1.534  -0.798  1.00  0.00     0.001 C 
HETATM   10  C10 UNL     1      -0.822  -2.034  -0.846  1.00  0.00     0.004 C 
HETATM   11  C11 UNL     1       0.672   0.430  -2.393  1.00  0.00     0.001 C 
HETATM   12  C12 UNL     1      -0.173   2.238  -0.196  1.00  0.00     0.271 C 
HETATM   13  O1  UNL     1       0.635   2.860   0.698  1.00  0.00    -0.300 OA
HETATM   14  C13 UNL     1       1.156   1.982   1.657  1.00  0.00     0.152 C 
HETATM   15  C14 UNL     1       0.372   0.687   1.499  1.00  0.00     0.044 C 
HETATM   16  O5  UNL     1      -0.733   2.827  -1.095  1.00  0.00    -0.264 OA
HETATM   17  C19 UNL     1      -3.198  -3.267   1.052  1.00  0.00     0.026 C 
HETATM   18  O6  UNL     1      -4.952   0.417  -1.559  1.00  0.00    -0.291 OA
ENDROOT
BRANCH  14  19
HETATM   19  C15 UNL     1       2.642   1.792   1.520  1.00  0.00     0.069 A 
HETATM   20  C16 UNL     1       3.549   1.163   2.503  1.00  0.00     0.296 A 
HETATM   21  O2  UNL     1       4.856   1.144   2.115  1.00  0.00    -0.266 OA
HETATM   22  O4  UNL     1       3.148   0.714   3.571  1.00  0.00    -0.259 OA
HETATM   23  C17 UNL     1       4.873   1.743   0.819  1.00  0.00     0.299 A 
HETATM   24  C18 UNL     1       3.455   2.145   0.513  1.00  0.00     0.041 A 
HETATM   25  O3  UNL     1       5.293   0.708  -0.064  1.00  0.00    -0.184 OA
ENDBRANCH  14  19
TORSDOF 1
