REMARK  1 active torsions:
REMARK  status: ('A' for Active; 'I' for Inactive)
REMARK    1  A    between atoms: C20_23  and  C21_25 
ROOT
HETATM    1  C1  UNL     1      -4.466   0.298  -0.010  1.00  0.00     0.094 A 
HETATM    2  C2  UNL     1      -4.469  -1.079  -0.247  1.00  0.00     0.026 A 
HETATM    3  C3  UNL     1      -3.312  -1.765  -0.614  1.00  0.00     0.027 A 
HETATM    4  C4  UNL     1      -2.092  -1.104  -0.782  1.00  0.00     0.103 A 
HETATM    5  C5  UNL     1      -2.086   0.287  -0.599  1.00  0.00     0.064 A 
HETATM    6  C6  UNL     1      -3.252   0.984  -0.217  1.00  0.00     0.027 A 
HETATM    7  C7  UNL     1      -3.289   2.417   0.102  1.00  0.00    -0.000 C 
HETATM    8  C8  UNL     1      -4.484   3.025   0.196  1.00  0.00     0.001 C 
HETATM    9  C9  UNL     1      -5.759   2.265  -0.081  1.00  0.00     0.117 C 
HETATM   10  O1  UNL     1      -5.635   0.929   0.325  1.00  0.00    -0.332 OA
HETATM   11  C10 UNL     1      -6.924   2.879   0.702  1.00  0.00     0.035 C 
HETATM   12  C11 UNL     1      -6.065   2.308  -1.583  1.00  0.00     0.035 C 
HETATM   13  C12 UNL     1      -0.779   0.974  -0.788  1.00  0.00     0.201 C 
HETATM   14  C13 UNL     1       0.420   0.103  -0.656  1.00  0.00     0.087 A 
HETATM   15  C14 UNL     1       0.222  -1.282  -0.835  1.00  0.00     0.107 A 
HETATM   16  O2  UNL     1      -0.990  -1.803  -1.183  1.00  0.00    -0.307 OA
HETATM   17  C15 UNL     1       1.328  -2.132  -0.721  1.00  0.00     0.049 A 
HETATM   18  C16 UNL     1       2.573  -1.592  -0.400  1.00  0.00     0.094 A 
HETATM   19  C17 UNL     1       2.730  -0.231  -0.188  1.00  0.00     0.028 A 
HETATM   20  C18 UNL     1       1.668   0.665  -0.315  1.00  0.00     0.134 A 
HETATM   21  O3  UNL     1       1.874   1.990  -0.087  1.00  0.00    -0.190 OA
HETATM   22  C19 UNL     1       4.151   0.066   0.193  1.00  0.00     0.063 C 
HETATM   23  C20 UNL     1       4.818  -1.309  -0.074  1.00  0.00     0.154 C 
HETATM   24  O4  UNL     1       3.766  -2.263  -0.252  1.00  0.00    -0.331 OA
HETATM   25  O6  UNL     1      -0.673   2.170  -1.035  1.00  0.00    -0.286 OA
ENDROOT
BRANCH  23  26
HETATM   26  C21 UNL     1       5.830  -1.773   0.982  1.00  0.00     0.152 C 
HETATM   27  C22 UNL     1       6.738  -2.871   0.421  1.00  0.00     0.036 C 
HETATM   28  C23 UNL     1       5.147  -2.264   2.260  1.00  0.00     0.036 C 
HETATM   29  O5  UNL     1       6.648  -0.682   1.318  1.00  0.00    -0.224 OA
ENDBRANCH  23  26
TORSDOF 1
