REMARK  8 active torsions:
REMARK  status: ('A' for Active; 'I' for Inactive)
REMARK    1  A    between atoms: C3_3  and  C19_19 
REMARK    2  A    between atoms: C7_7  and  C10_10 
REMARK    3  A    between atoms: C10_10  and  C12_12 
REMARK    4  A    between atoms: C12_12  and  C13_13 
REMARK    5  A    between atoms: C13_13  and  C14_14 
REMARK    6  A    between atoms: C14_14  and  C15_15 
REMARK    7  A    between atoms: C19_19  and  C20_20 
REMARK    8  A    between atoms: C20_20  and  C21_21 
ROOT
HETATM    1  C1  UNL     1      -1.242   0.740   3.509  1.00  0.00     0.065 C 
HETATM    2  C2  UNL     1      -1.377  -0.761   3.643  1.00  0.00     0.150 C 
HETATM    3  C3  UNL     1      -0.411  -1.591   2.813  1.00  0.00     0.058 C 
HETATM    4  C4  UNL     1       1.046  -1.069   2.972  1.00  0.00     0.007 C 
HETATM    5  C5  UNL     1       1.272   0.474   2.965  1.00  0.00     0.001 C 
HETATM    6  C6  UNL     1       0.193   1.147   3.841  1.00  0.00     0.008 C 
HETATM    7  C7  UNL     1       1.278   0.817   1.447  1.00  0.00     0.000 C 
HETATM    8  C8  UNL     1       2.016  -0.410   0.844  1.00  0.00     0.000 C 
HETATM    9  C9  UNL     1       1.997  -1.554   1.872  1.00  0.00     0.000 C 
HETATM   10  C18 UNL     1       2.654   0.793   3.589  1.00  0.00     0.000 C 
HETATM   11  O2  UNL     1      -2.231  -1.264   4.338  1.00  0.00    -0.296 OA
ENDROOT
BRANCH   3  12
HETATM   12  C19 UNL     1      -0.941  -1.834   1.380  1.00  0.00     0.012 C 
BRANCH  12  13
HETATM   13  C20 UNL     1      -2.472  -1.846   1.226  1.00  0.00     0.026 C 
BRANCH  13  14
HETATM   14  C21 UNL     1      -2.921  -2.092  -0.205  1.00  0.00    -0.024 A 
HETATM   15  C22 UNL     1      -3.570  -3.297  -0.506  1.00  0.00     0.023 A 
HETATM   16  C23 UNL     1      -4.044  -3.610  -1.783  1.00  0.00     0.131 A 
HETATM   17  C24 UNL     1      -3.840  -2.668  -2.793  1.00  0.00     0.027 A 
HETATM   18  O1  UNL     1      -4.689  -4.778  -2.042  1.00  0.00    -0.190 OA
HETATM   19  C25 UNL     1      -3.192  -1.464  -2.521  1.00  0.00    -0.002 A 
HETATM   20  C26 UNL     1      -2.732  -1.153  -1.236  1.00  0.00    -0.026 A 
HETATM   21  C27 UNL     1      -2.077   0.195  -1.029  1.00  0.00     0.031 C 
ENDBRANCH  13  14
ENDBRANCH  12  13
ENDBRANCH   3  12
BRANCH   7  22
HETATM   22  C10 UNL     1       1.797   2.181   0.912  1.00  0.00     0.000 C 
HETATM   23  C11 UNL     1       1.336   3.400   1.740  1.00  0.00     0.000 C 
BRANCH  22  24
HETATM   24  C12 UNL     1       1.340   2.497  -0.540  1.00  0.00     0.000 C 
BRANCH  24  25
HETATM   25  C13 UNL     1       1.785   1.550  -1.663  1.00  0.00     0.000 C 
BRANCH  25  26
HETATM   26  C14 UNL     1       1.368   2.056  -3.055  1.00  0.00     0.000 C 
BRANCH  26  27
HETATM   27  C15 UNL     1       1.776   1.119  -4.211  1.00  0.00     0.000 C 
HETATM   28  C16 UNL     1       1.151  -0.282  -4.090  1.00  0.00     0.000 C 
HETATM   29  C17 UNL     1       1.381   1.747  -5.560  1.00  0.00     0.000 C 
ENDBRANCH  26  27
ENDBRANCH  25  26
ENDBRANCH  24  25
ENDBRANCH  22  24
ENDBRANCH   7  22
TORSDOF 8
