REMARK  2 active torsions:
REMARK  status: ('A' for Active; 'I' for Inactive)
REMARK    1  A    between atoms: C11_14  and  C19_23 
REMARK    2  A    between atoms: C19_23  and  C20_24 
ROOT
HETATM    1  C1  UNL     1      -2.995   5.275  -0.163  1.00  0.00     0.029 A 
HETATM    2  C2  UNL     1      -4.141   4.545   0.150  1.00  0.00     0.002 A 
HETATM    3  C3  UNL     1      -4.040   3.172   0.369  1.00  0.00     0.005 A 
HETATM    4  C4  UNL     1      -2.791   2.542   0.271  1.00  0.00     0.064 A 
HETATM    5  C5  UNL     1      -1.637   3.271  -0.049  1.00  0.00     0.128 A 
HETATM    6  C6  UNL     1      -1.747   4.652  -0.264  1.00  0.00     0.154 A 
HETATM    7  O1  UNL     1      -0.629   5.364  -0.569  1.00  0.00    -0.188 OA
HETATM    8  O2  UNL     1      -0.406   2.705  -0.153  1.00  0.00    -0.305 OA
HETATM    9  C7  UNL     1      -0.281   1.355  -0.028  1.00  0.00     0.103 A 
HETATM   10  C8  UNL     1      -1.332   0.478   0.318  1.00  0.00     0.087 A 
HETATM   11  C9  UNL     1      -2.680   1.081   0.499  1.00  0.00     0.201 A 
HETATM   12  O3  UNL     1      -3.678   0.429   0.792  1.00  0.00    -0.286 OA
HETATM   13  C10 UNL     1      -1.141  -0.916   0.483  1.00  0.00     0.134 A 
HETATM   14  C11 UNL     1       0.138  -1.462   0.282  1.00  0.00     0.030 A 
HETATM   15  C12 UNL     1       1.169  -0.592  -0.071  1.00  0.00     0.090 A 
HETATM   16  C13 UNL     1       0.974   0.777  -0.217  1.00  0.00     0.025 A 
HETATM   17  C14 UNL     1       2.294   1.459  -0.515  1.00  0.00     0.048 C 
HETATM   18  C15 UNL     1       3.176   0.210  -0.810  1.00  0.00     0.125 C 
HETATM   19  O4  UNL     1       2.488  -0.925  -0.287  1.00  0.00    -0.334 OA
HETATM   20  C16 UNL     1       4.621   0.249  -0.304  1.00  0.00     0.033 C 
HETATM   21  C17 UNL     1       2.239   2.388  -1.738  1.00  0.00     0.007 C 
HETATM   22  C18 UNL     1       2.733   2.243   0.734  1.00  0.00     0.007 C 
HETATM   23  O5  UNL     1      -2.137  -1.752   0.889  1.00  0.00    -0.190 OA
ENDROOT
BRANCH  14  24
HETATM   24  C19 UNL     1       0.426  -2.935   0.488  1.00  0.00     0.056 C 
BRANCH  24  25
HETATM   25  C20 UNL     1      -0.543  -3.857  -0.209  1.00  0.00    -0.030 C 
HETATM   26  C21 UNL     1      -0.761  -5.145   0.110  1.00  0.00    -0.048 C 
HETATM   27  C22 UNL     1      -1.783  -5.979  -0.626  1.00  0.00     0.026 C 
HETATM   28  C23 UNL     1      -0.025  -5.883   1.204  1.00  0.00     0.026 C 
ENDBRANCH  24  25
ENDBRANCH  14  24
TORSDOF 2
