REMARK  7 active torsions:
REMARK  status: ('A' for Active; 'I' for Inactive)
REMARK    1  A    between atoms: C6_6  and  C7_7 
REMARK    2  A    between atoms: C7_7  and  C8_8 
REMARK    3  A    between atoms: C8_8  and  C9_9 
REMARK    4  A    between atoms: C9_9  and  C10_10 
REMARK    5  A    between atoms: C16_19  and  C25_31 
REMARK    6  A    between atoms: C17_20  and  C18_21 
REMARK    7  A    between atoms: C18_21  and  C19_23 
ROOT
HETATM    1  C1  UNL     1      -2.323  -1.594   1.263  1.00  0.00     0.138 A 
HETATM    2  C2  UNL     1      -1.480  -2.552   1.871  1.00  0.00     0.055 A 
HETATM    3  C3  UNL     1      -0.092  -2.520   1.821  1.00  0.00     0.135 A 
HETATM    4  C4  UNL     1       0.473  -1.466   1.072  1.00  0.00     0.053 A 
HETATM    5  C5  UNL     1      -0.334  -0.504   0.467  1.00  0.00     0.107 A 
HETATM    6  C6  UNL     1      -1.740  -0.552   0.553  1.00  0.00     0.083 A 
HETATM    7  O3  UNL     1       0.419   0.391  -0.254  1.00  0.00    -0.307 OA
HETATM    8  C16 UNL     1       1.732  -0.009  -0.122  1.00  0.00     0.103 A 
HETATM    9  C17 UNL     1       1.818  -1.139   0.649  1.00  0.00     0.066 A 
HETATM   10  O8  UNL     1       0.644  -3.514   2.377  1.00  0.00    -0.190 OA
HETATM   11  O9  UNL     1      -3.666  -1.796   1.293  1.00  0.00    -0.190 OA
ENDROOT
BRANCH   6  12
HETATM   12  C7  UNL     1      -2.557   0.435  -0.247  1.00  0.00     0.177 C 
HETATM   13  O2  UNL     1      -2.501   0.381  -1.468  1.00  0.00    -0.291 OA
BRANCH  12  14
HETATM   14  C8  UNL     1      -3.356   1.535   0.445  1.00  0.00     0.074 C 
BRANCH  14  15
HETATM   15  C9  UNL     1      -4.556   1.032   1.254  1.00  0.00     0.035 C 
BRANCH  15  16
HETATM   16  C10 UNL     1      -5.612   2.017   1.710  1.00  0.00    -0.022 A 
HETATM   17  C11 UNL     1      -6.617   1.561   2.575  1.00  0.00    -0.002 A 
HETATM   18  C12 UNL     1      -7.647   2.397   3.002  1.00  0.00     0.027 A 
HETATM   19  C13 UNL     1      -7.720   3.728   2.579  1.00  0.00     0.131 A 
HETATM   20  C14 UNL     1      -6.718   4.185   1.721  1.00  0.00     0.027 A 
HETATM   21  O1  UNL     1      -8.733   4.542   2.975  1.00  0.00    -0.190 OA
HETATM   22  C15 UNL     1      -5.677   3.352   1.298  1.00  0.00    -0.002 A 
ENDBRANCH  15  16
ENDBRANCH  14  15
ENDBRANCH  12  14
ENDBRANCH   6  12
BRANCH   9  23
HETATM   23  C18 UNL     1       3.026  -1.996   0.848  1.00  0.00     0.200 C 
HETATM   24  O4  UNL     1       3.263  -2.463   1.956  1.00  0.00    -0.286 OA
BRANCH  23  25
HETATM   25  C19 UNL     1       3.974  -2.207  -0.291  1.00  0.00     0.065 A 
HETATM   26  C20 UNL     1       3.535  -2.232  -1.627  1.00  0.00     0.136 A 
HETATM   27  O5  UNL     1       2.225  -2.124  -1.969  1.00  0.00    -0.190 OA
HETATM   28  C21 UNL     1       4.505  -2.241  -2.633  1.00  0.00     0.055 A 
HETATM   29  C22 UNL     1       5.876  -2.320  -2.371  1.00  0.00     0.133 A 
HETATM   30  C23 UNL     1       6.277  -2.389  -1.035  1.00  0.00     0.028 A 
HETATM   31  O6  UNL     1       6.781  -2.297  -3.384  1.00  0.00    -0.190 OA
HETATM   32  C24 UNL     1       5.339  -2.328  -0.003  1.00  0.00     0.007 A 
ENDBRANCH  23  25
ENDBRANCH   9  23
BRANCH   8  33
HETATM   33  C25 UNL     1       2.816   0.581  -0.931  1.00  0.00     0.023 A 
HETATM   34  C26 UNL     1       2.568   0.936  -2.263  1.00  0.00     0.004 A 
HETATM   35  C27 UNL     1       3.624   1.283  -3.103  1.00  0.00     0.028 A 
HETATM   36  C28 UNL     1       4.944   1.325  -2.639  1.00  0.00     0.131 A 
HETATM   37  C29 UNL     1       5.168   1.054  -1.286  1.00  0.00     0.028 A 
HETATM   38  O7  UNL     1       5.982   1.599  -3.471  1.00  0.00    -0.190 OA
HETATM   39  C30 UNL     1       4.120   0.700  -0.435  1.00  0.00     0.004 A 
ENDBRANCH   8  33
TORSDOF 7
