REMARK  5 active torsions:
REMARK  status: ('A' for Active; 'I' for Inactive)
REMARK    1  A    between atoms: C8_9  and  C17_21 
REMARK    2  A    between atoms: C17_21  and  C18_22 
REMARK    3  A    between atoms: C17_21  and  C21_25 
REMARK    4  A    between atoms: C18_22  and  C19_23 
REMARK    5  A    between atoms: C21_25  and  C22_26 
ROOT
HETATM    1  C1  UNL     1       1.782   2.781   1.036  1.00  0.00     0.001 C 
HETATM    2  C2  UNL     1       0.535   2.466   1.425  1.00  0.00     0.002 C 
HETATM    3  C3  UNL     1      -0.022   1.175   1.000  1.00  0.00     0.044 A 
HETATM    4  C4  UNL     1       0.634   0.503  -0.049  1.00  0.00     0.094 A 
HETATM    5  O1  UNL     1       1.781   1.019  -0.590  1.00  0.00    -0.332 OA
HETATM    6  C5  UNL     1       2.600   1.794   0.243  1.00  0.00     0.117 C 
HETATM    7  C6  UNL     1       3.598   2.527  -0.658  1.00  0.00     0.035 C 
HETATM    8  C7  UNL     1       3.354   0.869   1.207  1.00  0.00     0.035 C 
HETATM    9  C8  UNL     1       0.108  -0.720  -0.506  1.00  0.00     0.026 A 
HETATM   10  C9  UNL     1      -1.069  -1.234   0.077  1.00  0.00     0.134 A 
HETATM   11  C10 UNL     1      -1.724  -0.498   1.081  1.00  0.00     0.082 A 
HETATM   12  C11 UNL     1      -1.213   0.710   1.575  1.00  0.00     0.101 A 
HETATM   13  O2  UNL     1      -1.883   1.463   2.498  1.00  0.00    -0.333 OA
HETATM   14  C12 UNL     1      -3.275   1.381   2.430  1.00  0.00     0.129 C 
HETATM   15  C13 UNL     1      -3.717  -0.068   2.645  1.00  0.00     0.090 C 
HETATM   16  C14 UNL     1      -2.992  -1.000   1.679  1.00  0.00     0.179 C 
HETATM   17  O3  UNL     1      -3.462  -2.107   1.441  1.00  0.00    -0.291 OA
HETATM   18  C15 UNL     1      -5.243  -0.233   2.529  1.00  0.00     0.011 C 
HETATM   19  C16 UNL     1      -3.846   2.361   3.457  1.00  0.00     0.033 C 
HETATM   20  O4  UNL     1      -1.622  -2.396  -0.370  1.00  0.00    -0.190 OA
ENDROOT
BRANCH   9  21
HETATM   21  C17 UNL     1       0.732  -1.456  -1.703  1.00  0.00     0.037 C 
BRANCH  21  22
HETATM   22  C18 UNL     1       2.273  -1.496  -1.797  1.00  0.00     0.005 C 
BRANCH  22  23
HETATM   23  C19 UNL     1       2.815  -2.631  -2.688  1.00  0.00     0.000 C 
HETATM   24  C20 UNL     1       4.348  -2.597  -2.780  1.00  0.00     0.000 C 
ENDBRANCH  22  23
ENDBRANCH  21  22
BRANCH  21  25
HETATM   25  C21 UNL     1       0.101  -0.875  -2.989  1.00  0.00     0.102 C 
BRANCH  25  26
HETATM   26  C22 UNL     1      -1.415  -0.931  -2.956  1.00  0.00     0.185 C 
HETATM   27  O5  UNL     1      -1.857  -2.199  -3.060  1.00  0.00    -0.647 OA
HETATM   28  O6  UNL     1      -2.168  -0.007  -2.764  1.00  0.00    -0.647 OA
ENDBRANCH  25  26
ENDBRANCH  21  25
ENDBRANCH   9  21
TORSDOF 5
