REMARK  4 active torsions:
REMARK  status: ('A' for Active; 'I' for Inactive)
REMARK    1  A    between atoms: C3_3  and  C21_24 
REMARK    2  A    between atoms: C12_13  and  C15_18 
REMARK    3  A    between atoms: C21_24  and  C22_25 
REMARK    4  A    between atoms: C22_25  and  C24_27 
ROOT
HETATM    1  C1  UNL     1      -2.233  -0.040  -0.046  1.00  0.00     0.047 A 
HETATM    2  C2  UNL     1      -2.061  -1.341   0.456  1.00  0.00     0.137 A 
HETATM    3  C3  UNL     1      -0.807  -1.945   0.291  1.00  0.00     0.083 A 
HETATM    4  C4  UNL     1       0.271  -1.258  -0.298  1.00  0.00     0.106 A 
HETATM    5  C5  UNL     1       0.079   0.074  -0.697  1.00  0.00     0.028 A 
HETATM    6  C6  UNL     1      -1.194   0.674  -0.658  1.00  0.00     0.094 A 
HETATM    7  O1  UNL     1      -1.372   1.933  -1.168  1.00  0.00    -0.332 OA
HETATM    8  C7  UNL     1      -2.451   2.703  -0.709  1.00  0.00     0.117 C 
HETATM    9  C8  UNL     1      -3.668   1.871  -0.389  1.00  0.00     0.001 C 
HETATM   10  C9  UNL     1      -3.559   0.582  -0.028  1.00  0.00     0.002 C 
HETATM   11  C10 UNL     1      -2.784   3.706  -1.820  1.00  0.00     0.035 C 
HETATM   12  C11 UNL     1      -2.026   3.448   0.561  1.00  0.00     0.035 C 
HETATM   13  C12 UNL     1       1.250   0.853  -1.270  1.00  0.00     0.058 C 
HETATM   14  C13 UNL     1       2.566   0.087  -1.087  1.00  0.00     0.105 C 
HETATM   15  C14 UNL     1       2.320  -1.371  -1.397  1.00  0.00     0.277 C 
HETATM   16  O2  UNL     1       1.459  -1.902  -0.493  1.00  0.00    -0.276 OA
HETATM   17  O3  UNL     1       2.842  -1.996  -2.294  1.00  0.00    -0.264 OA
HETATM   18  O6  UNL     1      -3.110  -1.994   1.027  1.00  0.00    -0.190 OA
ENDROOT
BRANCH   3  19
HETATM   19  C21 UNL     1      -0.660  -3.378   0.719  1.00  0.00     0.179 C 
HETATM   20  O5  UNL     1      -1.568  -4.147   0.426  1.00  0.00    -0.291 OA
BRANCH  19  21
HETATM   21  C22 UNL     1       0.511  -3.914   1.543  1.00  0.00     0.092 C 
HETATM   22  C23 UNL     1       1.105  -2.897   2.532  1.00  0.00     0.011 C 
BRANCH  21  23
HETATM   23  C24 UNL     1       1.584  -4.671   0.744  1.00  0.00     0.159 C 
HETATM   24  O4  UNL     1       2.271  -5.547   1.608  1.00  0.00    -0.223 OA
HETATM   25  C25 UNL     1       1.037  -5.489  -0.423  1.00  0.00     0.036 C 
ENDBRANCH  21  23
ENDBRANCH  19  21
ENDBRANCH   3  19
BRANCH  13  26
HETATM   26  C15 UNL     1       1.398   2.225  -0.641  1.00  0.00    -0.018 A 
HETATM   27  C16 UNL     1       1.506   3.373  -1.436  1.00  0.00    -0.004 A 
HETATM   28  C17 UNL     1       1.632   4.638  -0.859  1.00  0.00    -0.000 A 
HETATM   29  C18 UNL     1       1.662   4.773   0.530  1.00  0.00    -0.000 A 
HETATM   30  C19 UNL     1       1.562   3.637   1.335  1.00  0.00    -0.000 A 
HETATM   31  C20 UNL     1       1.429   2.376   0.751  1.00  0.00    -0.004 A 
ENDBRANCH  13  26
TORSDOF 4
