REMARK  2 active torsions:
REMARK  status: ('A' for Active; 'I' for Inactive)
REMARK    1  A    between atoms: C9_10  and  C10_11 
REMARK    2  A    between atoms: C10_11  and  C11_12 
ROOT
HETATM    1  C1  UNL     1      -5.767   1.926   1.094  1.00  0.00     0.001 C 
HETATM    2  C2  UNL     1      -5.718   0.455   0.763  1.00  0.00     0.117 C 
HETATM    3  O1  UNL     1      -4.506  -0.114   1.181  1.00  0.00    -0.332 OA
HETATM    4  C3  UNL     1      -3.361   0.589   0.907  1.00  0.00     0.094 A 
HETATM    5  C4  UNL     1      -3.374   1.987   0.796  1.00  0.00     0.047 A 
HETATM    6  C5  UNL     1      -4.644   2.665   1.081  1.00  0.00     0.002 C 
HETATM    7  C6  UNL     1      -2.219   2.721   0.487  1.00  0.00     0.138 A 
HETATM    8  C7  UNL     1      -1.042   2.005   0.218  1.00  0.00     0.087 A 
HETATM    9  C8  UNL     1      -0.991   0.599   0.272  1.00  0.00     0.103 A 
HETATM   10  C9  UNL     1      -2.161  -0.095   0.627  1.00  0.00     0.028 A 
HETATM   11  O2  UNL     1       0.137  -0.117  -0.019  1.00  0.00    -0.305 OA
HETATM   12  C15 UNL     1       1.285   0.530  -0.367  1.00  0.00     0.130 A 
HETATM   13  C16 UNL     1       1.384   1.926  -0.449  1.00  0.00     0.064 A 
HETATM   14  C17 UNL     1       0.190   2.751  -0.151  1.00  0.00     0.201 A 
HETATM   15  O3  UNL     1       0.255   3.976  -0.210  1.00  0.00    -0.286 OA
HETATM   16  C18 UNL     1       2.586   2.547  -0.800  1.00  0.00     0.007 A 
HETATM   17  C19 UNL     1       3.716   1.767  -1.062  1.00  0.00     0.024 A 
HETATM   18  C20 UNL     1       3.643   0.367  -1.032  1.00  0.00     0.121 A 
HETATM   19  C21 UNL     1       2.430  -0.230  -0.651  1.00  0.00     0.176 A 
HETATM   20  O4  UNL     1       2.381  -1.588  -0.575  1.00  0.00    -0.186 OA
HETATM   21  O5  UNL     1       4.731  -0.425  -1.279  1.00  0.00    -0.329 OA
HETATM   22  C22 UNL     1       5.995   0.136  -1.032  1.00  0.00     0.117 C 
HETATM   23  C23 UNL     1       6.072   1.577  -1.483  1.00  0.00     0.001 C 
HETATM   24  C24 UNL     1       4.989   2.372  -1.456  1.00  0.00    -0.000 C 
HETATM   25  C25 UNL     1       7.023  -0.710  -1.792  1.00  0.00     0.035 C 
HETATM   26  C26 UNL     1       6.280   0.070   0.473  1.00  0.00     0.035 C 
HETATM   27  O6  UNL     1      -2.279   4.078   0.403  1.00  0.00    -0.190 OA
HETATM   28  C27 UNL     1      -6.842  -0.292   1.488  1.00  0.00     0.035 C 
HETATM   29  C28 UNL     1      -5.860   0.264  -0.752  1.00  0.00     0.035 C 
ENDROOT
BRANCH  10  30
HETATM   30  C10 UNL     1      -2.189  -1.617   0.653  1.00  0.00     0.056 C 
BRANCH  30  31
HETATM   31  C11 UNL     1      -0.939  -2.305   1.142  1.00  0.00    -0.030 C 
HETATM   32  C12 UNL     1      -0.361  -3.400   0.615  1.00  0.00    -0.048 C 
HETATM   33  C13 UNL     1       0.899  -3.986   1.212  1.00  0.00     0.026 C 
HETATM   34  C14 UNL     1      -0.875  -4.161  -0.584  1.00  0.00     0.026 C 
ENDBRANCH  30  31
ENDBRANCH  10  30
TORSDOF 2
