REMARK  7 active torsions:
REMARK  status: ('A' for Active; 'I' for Inactive)
REMARK    1  A    between atoms: C3_3  and  C7_7 
REMARK    2  A    between atoms: C12_13  and  O10_44 
REMARK    3  A    between atoms: C13_14  and  O9_42 
REMARK    4  A    between atoms: C14_15  and  O3_18 
REMARK    5  A    between atoms: C19_23  and  O8_40 
REMARK    6  A    between atoms: C20_24  and  O7_38 
REMARK    7  A    between atoms: C25_29  and  C26_31 
ROOT
HETATM    1  C7  UNL     1      -2.085   1.504   2.574  1.00  0.00     0.146 C 
HETATM    2  C8  UNL     1      -3.202   1.367   1.548  1.00  0.00     0.072 C 
HETATM    3  C9  UNL     1      -3.518  -0.107   1.363  1.00  0.00     0.182 C 
HETATM    4  C10 UNL     1      -2.237  -0.845   1.076  1.00  0.00     0.066 C 
HETATM    5  C11 UNL     1      -1.040  -0.371   1.486  1.00  0.00     0.106 C 
HETATM    6  O1  UNL     1      -0.933   0.805   2.175  1.00  0.00    -0.330 OA
HETATM    7  C12 UNL     1       0.301  -1.091   1.244  1.00  0.00     0.204 C 
HETATM    8  C13 UNL     1       0.137  -2.368   0.332  1.00  0.00     0.257 C 
HETATM    9  C14 UNL     1      -1.110  -2.392  -0.551  1.00  0.00     0.231 C 
HETATM   10  C15 UNL     1      -2.352  -2.071   0.255  1.00  0.00     0.205 C 
HETATM   11  O2  UNL     1      -3.433  -2.628   0.117  1.00  0.00    -0.289 OA
HETATM   12  O4  UNL     1       1.203  -2.296  -0.621  1.00  0.00    -0.305 OA
HETATM   13  C17 UNL     1       1.704  -1.022  -0.676  1.00  0.00     0.098 C 
HETATM   14  C18 UNL     1       1.261  -0.257   0.390  1.00  0.00     0.059 C 
HETATM   15  C19 UNL     1       1.713   1.072   0.509  1.00  0.00     0.119 C 
HETATM   16  C20 UNL     1       2.378   1.631  -0.604  1.00  0.00     0.138 C 
HETATM   17  C21 UNL     1       2.842   0.830  -1.671  1.00  0.00     0.119 C 
HETATM   18  C22 UNL     1       2.482  -0.521  -1.717  1.00  0.00     0.054 C 
HETATM   19  C23 UNL     1       2.821  -1.382  -2.904  1.00  0.00     0.181 C 
HETATM   20  C24 UNL     1       3.810  -0.671  -3.816  1.00  0.00     0.072 C 
HETATM   21  C25 UNL     1       3.442   0.802  -3.966  1.00  0.00     0.146 C 
HETATM   22  O5  UNL     1       3.484   1.444  -2.714  1.00  0.00    -0.327 OA
HETATM   23  O6  UNL     1       3.374  -2.612  -2.474  1.00  0.00    -0.218 OA
HETATM   24  O11 UNL     1      -4.424  -0.254   0.284  1.00  0.00    -0.218 OA
ENDROOT
BRANCH   1  25
HETATM   25  C3  UNL     1      -2.537   1.158   3.982  1.00  0.00     0.005 A 
HETATM   26  C2  UNL     1      -3.257   2.104   4.722  1.00  0.00    -0.002 A 
HETATM   27  C1  UNL     1      -3.679   1.838   6.026  1.00  0.00    -0.000 A 
HETATM   28  C6  UNL     1      -3.388   0.607   6.613  1.00  0.00    -0.000 A 
HETATM   29  C5  UNL     1      -2.679  -0.351   5.887  1.00  0.00    -0.000 A 
HETATM   30  C4  UNL     1      -2.259  -0.076   4.584  1.00  0.00    -0.002 A 
ENDBRANCH   1  25
BRANCH   7  31
HETATM   31  O10 UNL     1       0.879  -1.575   2.448  1.00  0.00    -0.341 OA
HETATM   32  C35 UNL     1       1.570  -0.681   3.280  1.00  0.00     0.175 C 
ENDBRANCH   7  31
BRANCH   8  33
HETATM   33  O9  UNL     1       0.327  -3.590   1.018  1.00  0.00    -0.327 OA
HETATM   34  C34 UNL     1      -0.729  -3.996   1.862  1.00  0.00     0.177 C 
ENDBRANCH   8  33
BRANCH   9  35
HETATM   35  O3  UNL     1      -1.176  -3.612  -1.262  1.00  0.00    -0.342 OA
HETATM   36  C16 UNL     1      -1.916  -3.531  -2.461  1.00  0.00     0.175 C 
ENDBRANCH   9  35
BRANCH  15  37
HETATM   37  O8  UNL     1       1.361   1.853   1.579  1.00  0.00    -0.326 OA
HETATM   38  C33 UNL     1       2.409   2.454   2.309  1.00  0.00     0.181 C 
ENDBRANCH  15  37
BRANCH  16  39
HETATM   39  O7  UNL     1       2.751   2.951  -0.587  1.00  0.00    -0.324 OA
HETATM   40  C32 UNL     1       1.773   3.817  -1.118  1.00  0.00     0.182 C 
ENDBRANCH  16  39
BRANCH  21  41
HETATM   41  C26 UNL     1       2.151   1.043  -4.738  1.00  0.00     0.005 A 
HETATM   42  C27 UNL     1       2.204   1.230  -6.126  1.00  0.00    -0.002 A 
HETATM   43  C28 UNL     1       1.052   1.475  -6.878  1.00  0.00    -0.000 A 
HETATM   44  C29 UNL     1      -0.193   1.526  -6.252  1.00  0.00    -0.000 A 
HETATM   45  C30 UNL     1      -0.271   1.332  -4.873  1.00  0.00    -0.000 A 
HETATM   46  C31 UNL     1       0.889   1.100  -4.131  1.00  0.00    -0.002 A 
ENDBRANCH  21  41
TORSDOF 7
