REMARK  4 active torsions:
REMARK  status: ('A' for Active; 'I' for Inactive)
REMARK    1  A    between atoms: C7_8  and  C17_22 
REMARK    2  A    between atoms: C8_9  and  C9_11 
REMARK    3  A    between atoms: C10_12  and  O3_13 
REMARK    4  A    between atoms: C13_16  and  O4_19 
ROOT
HETATM    1  C1  UNL     1       4.690   1.050  -0.373  1.00  0.00     0.144 A 
HETATM    2  C2  UNL     1       4.884  -0.112   0.398  1.00  0.00     0.123 A 
HETATM    3  C3  UNL     1       3.831  -0.863   0.889  1.00  0.00     0.051 A 
HETATM    4  C4  UNL     1       2.552  -0.376   0.545  1.00  0.00     0.104 A 
HETATM    5  C5  UNL     1       2.374   0.753  -0.252  1.00  0.00     0.055 A 
HETATM    6  C6  UNL     1       3.448   1.540  -0.735  1.00  0.00     0.157 A 
HETATM    7  O1  UNL     1       3.300   2.655  -1.493  1.00  0.00    -0.188 OA
HETATM    8  C7  UNL     1       0.949   0.847  -0.439  1.00  0.00     0.069 A 
HETATM    9  C8  UNL     1       0.337  -0.161   0.266  1.00  0.00     0.105 A 
HETATM   10  O2  UNL     1       1.335  -0.915   0.870  1.00  0.00    -0.307 OA
HETATM   11  O7  UNL     1       6.241  -0.322   0.553  1.00  0.00    -0.299 OA
HETATM   12  C18 UNL     1       6.928   0.745  -0.113  1.00  0.00     0.304 A 
HETATM   13  O8  UNL     1       5.923   1.583  -0.694  1.00  0.00    -0.297 OA
ENDROOT
BRANCH   9  14
HETATM   14  C9  UNL     1      -1.078  -0.565   0.476  1.00  0.00     0.047 C 
HETATM   15  C10 UNL     1      -2.224   0.161   0.071  1.00  0.00     0.123 C 
HETATM   16  C12 UNL     1      -3.504  -0.367   0.356  1.00  0.00     0.175 C 
HETATM   17  C13 UNL     1      -3.674  -1.598   1.008  1.00  0.00     0.121 C 
HETATM   18  O5  UNL     1      -4.652   0.279   0.011  1.00  0.00    -0.186 OA
HETATM   19  C14 UNL     1      -2.537  -2.229   1.513  1.00  0.00     0.026 C 
HETATM   20  C15 UNL     1      -1.269  -1.745   1.218  1.00  0.00     0.006 C 
BRANCH  15  21
HETATM   21  O3  UNL     1      -2.016   1.340  -0.591  1.00  0.00    -0.326 OA
HETATM   22  C11 UNL     1      -3.065   2.093  -1.149  1.00  0.00     0.181 C 
ENDBRANCH  15  21
BRANCH  17  23
HETATM   23  O4  UNL     1      -4.926  -2.030   1.357  1.00  0.00    -0.326 OA
HETATM   24  C16 UNL     1      -5.539  -2.836   0.376  1.00  0.00     0.181 C 
ENDBRANCH  17  23
ENDBRANCH   9  14
BRANCH   8  25
HETATM   25  C17 UNL     1       0.390   1.895  -1.363  1.00  0.00     0.236 C 
HETATM   26  O6  UNL     1       0.010   1.635  -2.491  1.00  0.00    -0.283 OA
ENDBRANCH   8  25
TORSDOF 4
