REMARK  7 active torsions:
REMARK  status: ('A' for Active; 'I' for Inactive)
REMARK    1  A    between atoms: C4_4  and  C7_7 
REMARK    2  A    between atoms: C7_7  and  C8_8 
REMARK    3  A    between atoms: C8_8  and  C9_9 
REMARK    4  A    between atoms: C10_11  and  C37_44 
REMARK    5  A    between atoms: C17_18  and  O4_30 
REMARK    6  A    between atoms: C20_22  and  C21_23 
REMARK    7  A    between atoms: C30_34  and  C31_36 
ROOT
HETATM    1  C9  UNL     1      -0.246  -1.117   0.904  1.00  0.00     0.116 C 
HETATM    2  O1  UNL     1      -1.319  -1.884  -0.407  1.00  0.00    -0.354 OA
HETATM    3  C10 UNL     1      -2.323  -2.803  -0.087  1.00  0.00     0.144 C 
HETATM    4  C11 UNL     1      -1.537  -2.600   1.109  1.00  0.00     0.081 C 
HETATM    5  C12 UNL     1      -1.988  -0.801   0.953  1.00  0.00     0.037 C 
HETATM    6  C13 UNL     1      -1.047  -0.393   2.002  1.00  0.00     0.035 C 
HETATM    7  C14 UNL     1      -1.229   0.021  -0.455  1.00  0.00     0.023 C 
HETATM    8  C15 UNL     1      -1.723   1.311  -1.007  1.00  0.00     0.096 C 
HETATM    9  C16 UNL     1      -1.290   1.649  -2.253  1.00  0.00     0.066 C 
HETATM   10  C17 UNL     1      -0.465   0.786  -3.156  1.00  0.00     0.100 C 
HETATM   11  C18 UNL     1       0.102  -0.359  -2.684  1.00  0.00     0.049 C 
HETATM   12  C19 UNL     1       0.042  -0.816  -1.263  1.00  0.00     0.099 C 
HETATM   13  O2  UNL     1       0.614  -2.191  -0.859  1.00  0.00    -0.311 OA
HETATM   14  C20 UNL     1      -0.001  -3.188   0.246  1.00  0.00     0.080 C 
HETATM   15  C28 UNL     1      -1.764   2.994  -2.781  1.00  0.00     0.115 C 
HETATM   16  C29 UNL     1      -2.501   3.875  -1.790  1.00  0.00     0.089 C 
HETATM   17  C30 UNL     1      -2.187   3.494  -0.348  1.00  0.00     0.150 C 
HETATM   18  O5  UNL     1      -2.457   2.124  -0.191  1.00  0.00    -0.329 OA
HETATM   19  O7  UNL     1      -1.562   3.447  -4.001  1.00  0.00    -0.195 OA
ENDROOT
BRANCH   1  20
HETATM   20  C8  UNL     1       0.980  -0.049   0.738  1.00  0.00     0.034 C 
BRANCH  20  21
HETATM   21  C7  UNL     1       2.434  -0.462   0.396  1.00  0.00     0.029 C 
BRANCH  21  22
HETATM   22  C4  UNL     1       3.336   0.755   0.365  1.00  0.00    -0.022 A 
HETATM   23  C3  UNL     1       4.170   1.083   1.438  1.00  0.00    -0.002 A 
HETATM   24  C2  UNL     1       4.971   2.226   1.393  1.00  0.00     0.027 A 
HETATM   25  C1  UNL     1       4.972   3.070   0.279  1.00  0.00     0.131 A 
HETATM   26  C6  UNL     1       4.149   2.730  -0.797  1.00  0.00     0.027 A 
HETATM   27  O9  UNL     1       5.701   4.215   0.252  1.00  0.00    -0.190 OA
HETATM   28  C5  UNL     1       3.341   1.594  -0.756  1.00  0.00    -0.002 A 
ENDBRANCH  21  22
ENDBRANCH  20  21
ENDBRANCH   1  20
BRANCH   3  29
HETATM   29  C37 UNL     1      -3.740  -2.322  -0.285  1.00  0.00     0.005 A 
HETATM   30  C38 UNL     1      -4.094  -1.664  -1.467  1.00  0.00     0.000 A 
HETATM   31  C39 UNL     1      -5.399  -1.213  -1.671  1.00  0.00     0.027 A 
HETATM   32  C40 UNL     1      -6.392  -1.414  -0.708  1.00  0.00     0.131 A 
HETATM   33  C41 UNL     1      -6.035  -2.091   0.464  1.00  0.00     0.027 A 
HETATM   34  O8  UNL     1      -7.665  -0.979  -0.903  1.00  0.00    -0.190 OA
HETATM   35  C42 UNL     1      -4.731  -2.544   0.675  1.00  0.00     0.000 A 
ENDBRANCH   3  29
BRANCH  14  36
HETATM   36  C21 UNL     1       1.073  -3.807   1.139  1.00  0.00     0.019 A 
HETATM   37  C22 UNL     1       0.766  -4.334   2.399  1.00  0.00     0.004 A 
HETATM   38  C23 UNL     1       1.752  -4.902   3.207  1.00  0.00     0.027 A 
HETATM   39  C24 UNL     1       3.083  -4.976   2.787  1.00  0.00     0.131 A 
HETATM   40  C25 UNL     1       3.385  -4.478   1.517  1.00  0.00     0.027 A 
HETATM   41  O3  UNL     1       4.047  -5.527   3.571  1.00  0.00    -0.190 OA
HETATM   42  C26 UNL     1       2.399  -3.916   0.704  1.00  0.00     0.004 A 
ENDBRANCH  14  36
BRANCH  10  43
HETATM   43  O4  UNL     1      -0.396   1.151  -4.480  1.00  0.00    -0.328 OA
HETATM   44  C27 UNL     1       0.079   0.230  -5.434  1.00  0.00     0.181 C 
ENDBRANCH  10  43
BRANCH  17  45
HETATM   45  C31 UNL     1      -0.792   3.813   0.166  1.00  0.00     0.006 A 
HETATM   46  C32 UNL     1      -0.492   3.561   1.511  1.00  0.00     0.000 A 
HETATM   47  C33 UNL     1       0.775   3.812   2.036  1.00  0.00     0.027 A 
HETATM   48  C34 UNL     1       1.792   4.358   1.248  1.00  0.00     0.131 A 
HETATM   49  C35 UNL     1       1.499   4.599  -0.097  1.00  0.00     0.027 A 
HETATM   50  O6  UNL     1       3.032   4.588   1.753  1.00  0.00    -0.190 OA
HETATM   51  C36 UNL     1       0.234   4.338  -0.628  1.00  0.00     0.000 A 
ENDBRANCH  17  45
TORSDOF 7
