REMARK  4 active torsions:
REMARK  status: ('A' for Active; 'I' for Inactive)
REMARK    1  A    between atoms: C16_16  and  C30_32 
REMARK    2  A    between atoms: C19_19  and  O1_25 
REMARK    3  A    between atoms: O1_25  and  C25_26 
REMARK    4  A    between atoms: C25_26  and  C26_27 
ROOT
HETATM    1  C1  UNL     1      -6.082  -1.011  -2.071  1.00  0.00     0.059 C 
HETATM    2  C2  UNL     1      -6.219  -1.937  -0.877  1.00  0.00     0.219 C 
HETATM    3  C3  UNL     1      -5.274  -3.143  -0.887  1.00  0.00     0.050 C 
HETATM    4  C4  UNL     1      -3.832  -2.555  -0.827  1.00  0.00     0.007 C 
HETATM    5  C5  UNL     1      -3.873  -1.004  -0.866  1.00  0.00     0.028 C 
HETATM    6  C6  UNL     1      -4.603  -0.619  -2.185  1.00  0.00     0.007 C 
HETATM    7  C7  UNL     1      -2.427  -0.415  -0.877  1.00  0.00     0.007 C 
HETATM    8  C8  UNL     1      -1.331  -1.026   0.050  1.00  0.00     0.004 C 
HETATM    9  C9  UNL     1      -1.488  -2.564   0.115  1.00  0.00     0.000 C 
HETATM   10  C10 UNL     1      -2.934  -3.039   0.322  1.00  0.00     0.000 C 
HETATM   11  C11 UNL     1       0.092  -0.600  -0.512  1.00  0.00     0.015 C 
HETATM   12  C12 UNL     1       0.162   0.927  -0.546  1.00  0.00    -0.049 C 
HETATM   13  C13 UNL     1      -0.956   1.659  -0.712  1.00  0.00    -0.035 C 
HETATM   14  C14 UNL     1      -2.359   1.118  -0.792  1.00  0.00     0.025 C 
HETATM   15  C15 UNL     1       1.504   1.643  -0.515  1.00  0.00     0.030 C 
HETATM   16  C16 UNL     1       2.453   1.065   0.559  1.00  0.00     0.107 C 
HETATM   17  C17 UNL     1       2.579  -0.454   0.287  1.00  0.00     0.013 C 
HETATM   18  C18 UNL     1       1.232  -1.193   0.356  1.00  0.00     0.004 C 
HETATM   19  C19 UNL     1       3.855   1.732   0.492  1.00  0.00     0.134 C 
HETATM   20  C20 UNL     1       3.904   2.921  -0.474  1.00  0.00     0.031 C 
HETATM   21  C21 UNL     1       3.465   2.581  -1.913  1.00  0.00     0.003 C 
HETATM   22  C22 UNL     1       2.153   1.762  -1.906  1.00  0.00     0.005 C 
HETATM   23  C23 UNL     1       3.258   3.904  -2.684  1.00  0.00     0.000 C 
HETATM   24  C24 UNL     1       4.580   1.788  -2.633  1.00  0.00     0.000 C 
HETATM   25  C31 UNL     1       0.345  -1.071  -1.972  1.00  0.00     0.004 C 
HETATM   26  C32 UNL     1      -1.490  -0.501   1.507  1.00  0.00     0.000 C 
HETATM   27  C33 UNL     1      -4.803  -0.487   0.246  1.00  0.00     0.145 C 
HETATM   28  O5  UNL     1      -6.010  -1.208   0.298  1.00  0.00    -0.333 OA
HETATM   29  C34 UNL     1      -5.602  -4.105   0.280  1.00  0.00     0.005 C 
HETATM   30  C35 UNL     1      -5.462  -3.966  -2.185  1.00  0.00     0.005 C 
HETATM   31  O6  UNL     1      -7.571  -2.310  -0.725  1.00  0.00    -0.196 OA
ENDROOT
BRANCH  19  32
HETATM   32  O1  UNL     1       4.268   2.222   1.739  1.00  0.00    -0.301 OA
BRANCH  32  33
HETATM   33  C25 UNL     1       5.131   1.511   2.524  1.00  0.00     0.291 C 
HETATM   34  O2  UNL     1       5.530   0.409   2.164  1.00  0.00    -0.260 OA
BRANCH  33  35
HETATM   35  C26 UNL     1       5.515   2.063   3.854  1.00  0.00     0.037 C 
HETATM   36  C27 UNL     1       6.606   1.654   4.539  1.00  0.00    -0.025 C 
HETATM   37  C28 UNL     1       7.651   0.646   4.138  1.00  0.00     0.030 C 
HETATM   38  C29 UNL     1       4.621   3.151   4.408  1.00  0.00     0.036 C 
ENDBRANCH  33  35
ENDBRANCH  32  33
ENDBRANCH  19  32
BRANCH  16  39
HETATM   39  C30 UNL     1       1.867   1.239   1.968  1.00  0.00     0.187 C 
HETATM   40  O3  UNL     1       1.160   2.372   2.118  1.00  0.00    -0.647 OA
HETATM   41  O4  UNL     1       2.054   0.513   2.917  1.00  0.00    -0.647 OA
ENDBRANCH  16  39
TORSDOF 4
