REMARK  5 active torsions:
REMARK  status: ('A' for Active; 'I' for Inactive)
REMARK    1  A    between atoms: C2_2  and  O6_41 
REMARK    2  A    between atoms: C16_16  and  C30_32 
REMARK    3  A    between atoms: C19_19  and  O1_25 
REMARK    4  A    between atoms: O1_25  and  C25_26 
REMARK    5  A    between atoms: C25_26  and  C26_27 
ROOT
HETATM    1  C1  UNL     1      -5.609  -0.633   2.507  1.00  0.00     0.056 C 
HETATM    2  C2  UNL     1      -5.714  -2.170   1.770  1.00  0.00     0.187 C 
HETATM    3  C3  UNL     1      -4.869  -3.024   0.531  1.00  0.00     0.047 C 
HETATM    4  C4  UNL     1      -4.012  -1.809  -0.519  1.00  0.00     0.007 C 
HETATM    5  C5  UNL     1      -3.756  -0.312   0.260  1.00  0.00     0.028 C 
HETATM    6  C6  UNL     1      -4.752   0.504   1.406  1.00  0.00     0.007 C 
HETATM    7  C7  UNL     1      -2.391   0.280  -0.118  1.00  0.00     0.007 C 
HETATM    8  C8  UNL     1      -1.119  -0.617  -0.029  1.00  0.00     0.004 C 
HETATM    9  C9  UNL     1      -1.437  -2.089  -0.432  1.00  0.00     0.000 C 
HETATM   10  C10 UNL     1      -2.737  -2.312  -1.218  1.00  0.00     0.000 C 
HETATM   11  C11 UNL     1       0.028   0.026  -0.923  1.00  0.00     0.015 C 
HETATM   12  C12 UNL     1       0.218   1.497  -0.533  1.00  0.00    -0.049 C 
HETATM   13  C13 UNL     1      -0.771   2.203   0.049  1.00  0.00    -0.035 C 
HETATM   14  C14 UNL     1      -2.116   1.671   0.454  1.00  0.00     0.025 C 
HETATM   15  C15 UNL     1       1.531   2.220  -0.824  1.00  0.00     0.030 C 
HETATM   16  C16 UNL     1       2.759   1.374  -0.406  1.00  0.00     0.107 C 
HETATM   17  C17 UNL     1       2.639   0.011  -1.124  1.00  0.00     0.013 C 
HETATM   18  C18 UNL     1       1.361  -0.753  -0.753  1.00  0.00     0.004 C 
HETATM   19  C19 UNL     1       4.093   2.051  -0.823  1.00  0.00     0.134 C 
HETATM   20  C20 UNL     1       3.907   3.534  -1.149  1.00  0.00     0.031 C 
HETATM   21  C21 UNL     1       2.914   3.769  -2.304  1.00  0.00     0.003 C 
HETATM   22  C22 UNL     1       1.679   2.835  -2.232  1.00  0.00     0.004 C 
HETATM   23  C23 UNL     1       0.417   3.593  -2.686  1.00  0.00     0.000 C 
HETATM   24  C24 UNL     1       3.614   3.663  -3.672  1.00  0.00     0.000 C 
HETATM   25  C31 UNL     1      -0.317  -0.017  -2.433  1.00  0.00     0.004 C 
HETATM   26  C32 UNL     1      -0.635  -0.643   1.453  1.00  0.00     0.000 C 
HETATM   27  C33 UNL     1      -3.897  -1.241   1.351  1.00  0.00     0.145 C 
HETATM   28  O5  UNL     1      -5.436  -1.294   0.823  1.00  0.00    -0.335 OA
HETATM   29  C34 UNL     1      -4.066  -4.204   1.136  1.00  0.00     0.005 C 
HETATM   30  C35 UNL     1      -5.856  -3.699  -0.468  1.00  0.00     0.005 C 
ENDROOT
BRANCH  19  31
HETATM   31  O1  UNL     1       5.066   1.970   0.184  1.00  0.00    -0.300 OA
BRANCH  31  32
HETATM   32  C25 UNL     1       5.914   0.899   0.243  1.00  0.00     0.295 C 
HETATM   33  O2  UNL     1       5.966   0.100  -0.686  1.00  0.00    -0.259 OA
BRANCH  32  34
HETATM   34  C26 UNL     1       6.647   0.636   1.510  1.00  0.00     0.060 C 
HETATM   35  C27 UNL     1       7.619  -0.276   1.736  1.00  0.00    -0.038 C 
HETATM   36  C28 UNL     1       8.233  -0.409   3.112  1.00  0.00     0.026 C 
HETATM   37  C29 UNL     1       8.197  -1.235   0.723  1.00  0.00     0.026 C 
ENDBRANCH  32  34
ENDBRANCH  31  32
ENDBRANCH  19  31
BRANCH  16  38
HETATM   38  C30 UNL     1       2.763   1.114   1.108  1.00  0.00     0.187 C 
HETATM   39  O3  UNL     1       2.273   2.136   1.832  1.00  0.00    -0.647 OA
HETATM   40  O4  UNL     1       3.215   0.142   1.666  1.00  0.00    -0.647 OA
ENDBRANCH  16  38
BRANCH   2  41
HETATM   41  O6  UNL     1      -7.067  -2.530   1.740  1.00  0.00    -0.332 OA
HETATM   42  C36 UNL     1      -7.434  -3.070   2.989  1.00  0.00     0.177 C 
ENDBRANCH   2  41
TORSDOF 5
