REMARK  1 active torsions:
REMARK  status: ('A' for Active; 'I' for Inactive)
REMARK    1  A    between atoms: C9_10  and  C11_12 
ROOT
HETATM    1  C1  UNL     1      -3.065  -1.284   0.212  1.00  0.00     0.014 A 
HETATM    2  C2  UNL     1      -2.972   0.096   0.408  1.00  0.00     0.059 A 
HETATM    3  N1  UNL     1      -1.806   0.678   0.699  1.00  0.00    -0.255 NA
HETATM    4  C3  UNL     1      -0.684  -0.053   0.789  1.00  0.00     0.055 A 
HETATM    5  C4  UNL     1      -0.682  -1.447   0.625  1.00  0.00    -0.009 A 
HETATM    6  C5  UNL     1      -1.912  -2.055   0.335  1.00  0.00    -0.002 A 
HETATM    7  C6  UNL     1       0.546  -2.331   0.749  1.00  0.00     0.024 C 
HETATM    8  C7  UNL     1       1.911  -1.698   0.418  1.00  0.00     0.004 C 
HETATM    9  C8  UNL     1       1.838  -0.594  -0.646  1.00  0.00     0.003 C 
HETATM   10  C9  UNL     1       1.599   0.798  -0.025  1.00  0.00     0.034 C 
HETATM   11  C10 UNL     1       0.550   0.756   1.108  1.00  0.00     0.048 C 
HETATM   12  C14 UNL     1       0.578  -2.982   2.143  1.00  0.00     0.005 C 
HETATM   13  C15 UNL     1      -4.151   1.024   0.288  1.00  0.00     0.052 C 
ENDROOT
BRANCH  10  14
HETATM   14  C11 UNL     1       1.390   1.921  -1.067  1.00  0.00     0.127 C 
HETATM   15  O1  UNL     1       1.512   3.154  -0.399  1.00  0.00    -0.226 OA
HETATM   16  C12 UNL     1       0.014   1.911  -1.736  1.00  0.00     0.033 C 
HETATM   17  C13 UNL     1       2.475   1.911  -2.151  1.00  0.00     0.033 C 
ENDBRANCH  10  14
TORSDOF 1
