REMARK  3 active torsions:
REMARK  status: ('A' for Active; 'I' for Inactive)
REMARK    1  A    between atoms: C2_2  and  O2_18 
REMARK    2  A    between atoms: O2_18  and  C15_19 
REMARK    3  A    between atoms: C16_21  and  C20_28 
ROOT
HETATM    1  C1  UNL     1      -0.817   2.567   0.122  1.00  0.00     0.024 A 
HETATM    2  C2  UNL     1      -0.715   1.159  -0.001  1.00  0.00     0.098 A 
HETATM    3  C3  UNL     1       0.577   0.620  -0.010  1.00  0.00     0.042 A 
HETATM    4  C4  UNL     1       1.701   1.460   0.064  1.00  0.00     0.069 A 
HETATM    5  C5  UNL     1       1.547   2.855   0.152  1.00  0.00     0.018 A 
HETATM    6  C6  UNL     1       0.271   3.428   0.191  1.00  0.00     0.004 A 
HETATM    7  C7  UNL     1       2.863   3.453   0.193  1.00  0.00     0.021 A 
HETATM    8  C8  UNL     1       3.761   2.381   0.133  1.00  0.00     0.085 A 
HETATM    9  N1  UNL     1       3.086   1.162   0.059  1.00  0.00    -0.273 N 
HETATM   10  C9  UNL     1       3.818  -0.002  -0.004  1.00  0.00     0.265 A 
HETATM   11  C10 UNL     1       5.300   0.113   0.003  1.00  0.00     0.063 A 
HETATM   12  C11 UNL     1       5.925   1.319   0.073  1.00  0.00     0.025 A 
HETATM   13  C12 UNL     1       5.148   2.549   0.144  1.00  0.00     0.098 A 
HETATM   14  N2  UNL     1       5.646   3.797   0.215  1.00  0.00    -0.243 NA
HETATM   15  C13 UNL     1       4.788   4.832   0.273  1.00  0.00     0.099 A 
HETATM   16  C14 UNL     1       3.386   4.742   0.267  1.00  0.00     0.022 A 
HETATM   17  O1  UNL     1       3.275  -1.107  -0.059  1.00  0.00    -0.267 OA
ENDROOT
BRANCH   2  18
HETATM   18  O2  UNL     1      -1.896   0.462  -0.056  1.00  0.00    -0.304 OA
BRANCH  18  19
HETATM   19  C15 UNL     1      -1.951  -0.946   0.036  1.00  0.00     0.274 C 
HETATM   20  O3  UNL     1      -2.597  -1.354  -1.153  1.00  0.00    -0.326 OA
HETATM   21  C16 UNL     1      -2.803  -2.743  -1.210  1.00  0.00     0.184 C 
HETATM   22  C17 UNL     1      -3.673  -3.188  -0.039  1.00  0.00     0.215 C 
HETATM   23  C18 UNL     1      -3.020  -2.793   1.270  1.00  0.00     0.220 C 
HETATM   24  O6  UNL     1      -3.841  -4.584  -0.029  1.00  0.00    -0.218 OA
HETATM   25  C19 UNL     1      -2.791  -1.300   1.242  1.00  0.00     0.241 C 
HETATM   26  O5  UNL     1      -3.870  -3.127   2.337  1.00  0.00    -0.218 OA
HETATM   27  O4  UNL     1      -2.107  -0.902   2.402  1.00  0.00    -0.215 OA
BRANCH  21  28
HETATM   28  C20 UNL     1      -3.449  -3.078  -2.547  1.00  0.00     0.214 C 
HETATM   29  O7  UNL     1      -2.533  -2.835  -3.596  1.00  0.00    -0.218 OA
ENDBRANCH  21  28
ENDBRANCH  18  19
ENDBRANCH   2  18
TORSDOF 3
