REMARK  1 active torsions:
REMARK  status: ('A' for Active; 'I' for Inactive)
REMARK    1  A    between atoms: C9_9  and  C11_11 
ROOT
HETATM    1  C1  UNL     1      -0.730   1.726  -0.319  1.00  0.00     0.005 C 
HETATM    2  C2  UNL     1      -1.736   1.871   0.844  1.00  0.00     0.033 C 
HETATM    3  C3  UNL     1      -3.008   1.061   0.619  1.00  0.00     0.155 C 
HETATM    4  C4  UNL     1      -2.672  -0.403   0.368  1.00  0.00     0.066 C 
HETATM    5  C5  UNL     1      -1.733  -0.514  -0.830  1.00  0.00     0.155 C 
HETATM    6  C6  UNL     1      -0.400   0.237  -0.629  1.00  0.00     0.029 C 
HETATM    7  C7  UNL     1       0.446   0.092  -1.925  1.00  0.00     0.003 C 
HETATM    8  C8  UNL     1       1.532  -0.944  -1.603  1.00  0.00     0.004 C 
HETATM    9  C9  UNL     1       1.873  -0.619  -0.143  1.00  0.00     0.018 C 
HETATM   10  C10 UNL     1       0.478  -0.416   0.471  1.00  0.00     0.006 C 
HETATM   11  O1  UNL     1      -1.523  -1.878  -1.121  1.00  0.00    -0.223 OA
HETATM   12  O2  UNL     1      -3.839   1.162   1.752  1.00  0.00    -0.223 OA
HETATM   13  C14 UNL     1       0.485   2.630  -0.021  1.00  0.00     0.000 C 
ENDROOT
BRANCH   9  14
HETATM   14  C11 UNL     1       2.728  -1.603   0.626  1.00  0.00    -0.044 C 
HETATM   15  C12 UNL     1       3.308  -1.083   1.921  1.00  0.00     0.026 C 
HETATM   16  C13 UNL     1       2.958  -2.864   0.229  1.00  0.00    -0.009 C 
ENDBRANCH   9  14
TORSDOF 1
