REMARK  2 active torsions:
REMARK  status: ('A' for Active; 'I' for Inactive)
REMARK    1  A    between atoms: C9_10  and  C11_12 
REMARK    2  A    between atoms: C11_12  and  C12_13 
ROOT
HETATM    1  C1  UNL     1      -2.472   0.944  -1.533  1.00  0.00     0.070 C 
HETATM    2  C2  UNL     1      -2.413  -0.572  -1.367  1.00  0.00     0.155 C 
HETATM    3  C3  UNL     1      -0.964  -1.081  -1.271  1.00  0.00     0.034 C 
HETATM    4  C4  UNL     1      -0.211  -0.415  -0.072  1.00  0.00     0.020 C 
HETATM    5  C5  UNL     1      -0.334   1.097  -0.229  1.00  0.00    -0.019 C 
HETATM    6  C6  UNL     1      -1.743   1.639  -0.387  1.00  0.00     0.173 C 
HETATM    7  O1  UNL     1      -1.784   3.037  -0.621  1.00  0.00    -0.219 OA
HETATM    8  C7  UNL     1       0.734   1.913  -0.219  1.00  0.00    -0.032 C 
HETATM    9  C8  UNL     1       2.155   1.461  -0.030  1.00  0.00     0.030 C 
HETATM   10  C9  UNL     1       2.240   0.107   0.689  1.00  0.00     0.033 C 
HETATM   11  C10 UNL     1       1.276  -0.862  -0.021  1.00  0.00     0.009 C 
HETATM   12  C14 UNL     1      -0.860  -0.861   1.263  1.00  0.00     0.004 C 
HETATM   13  C15 UNL     1      -0.244  -0.912  -2.629  1.00  0.00     0.003 C 
HETATM   14  O4  UNL     1      -3.095  -1.184  -2.438  1.00  0.00    -0.223 OA
ENDROOT
BRANCH  10  15
HETATM   15  C11 UNL     1       2.085   0.147   2.199  1.00  0.00     0.042 C 
HETATM   16  C13 UNL     1       1.549   1.192   2.867  1.00  0.00     0.002 C 
BRANCH  15  17
HETATM   17  C12 UNL     1       2.553  -1.023   2.988  1.00  0.00     0.207 C 
HETATM   18  O2  UNL     1       3.189  -2.069   2.420  1.00  0.00    -0.644 OA
HETATM   19  O3  UNL     1       2.382  -1.089   4.200  1.00  0.00    -0.644 OA
ENDBRANCH  15  17
ENDBRANCH  10  15
TORSDOF 2
