REMARK  1 active torsions:
REMARK  status: ('A' for Active; 'I' for Inactive)
REMARK    1  A    between atoms: C16_18  and  C18_20 
ROOT
HETATM    1  C1  UNL     1      -3.207  -1.355  -0.158  1.00  0.00     0.042 A 
HETATM    2  C2  UNL     1      -3.960  -0.186  -0.379  1.00  0.00     0.042 A 
HETATM    3  C3  UNL     1      -5.355  -0.267  -0.452  1.00  0.00     0.003 A 
HETATM    4  C4  UNL     1      -6.004  -1.499  -0.311  1.00  0.00     0.000 A 
HETATM    5  C5  UNL     1      -5.259  -2.656  -0.097  1.00  0.00     0.000 A 
HETATM    6  C6  UNL     1      -3.863  -2.583  -0.019  1.00  0.00     0.003 A 
HETATM    7  C7  UNL     1      -3.300   1.134  -0.541  1.00  0.00     0.196 A 
HETATM    8  C8  UNL     1      -1.818   1.175  -0.505  1.00  0.00     0.042 A 
HETATM    9  C9  UNL     1      -1.065   0.003  -0.283  1.00  0.00     0.040 A 
HETATM   10  C10 UNL     1      -1.725  -1.311  -0.075  1.00  0.00     0.196 A 
HETATM   11  O1  UNL     1      -1.083  -2.334   0.146  1.00  0.00    -0.287 OA
HETATM   12  C11 UNL     1       0.326   0.118  -0.261  1.00  0.00     0.005 A 
HETATM   13  C12 UNL     1       0.948   1.350  -0.468  1.00  0.00     0.086 A 
HETATM   14  C13 UNL     1       0.225   2.523  -0.676  1.00  0.00     0.000 A 
HETATM   15  C14 UNL     1      -1.172   2.408  -0.690  1.00  0.00     0.001 A 
HETATM   16  C15 UNL     1       0.896   3.858  -0.869  1.00  0.00     0.033 C 
HETATM   17  O2  UNL     1       2.319   1.234  -0.420  1.00  0.00    -0.331 OA
HETATM   18  C16 UNL     1       2.681  -0.138  -0.250  1.00  0.00     0.153 C 
HETATM   19  C17 UNL     1       1.372  -0.930  -0.005  1.00  0.00     0.061 C 
HETATM   20  O4  UNL     1      -3.963   2.156  -0.711  1.00  0.00    -0.287 OA
ENDROOT
BRANCH  18  21
HETATM   21  C18 UNL     1       3.754  -0.286   0.837  1.00  0.00     0.152 C 
HETATM   22  C19 UNL     1       5.012   0.507   0.470  1.00  0.00     0.036 C 
HETATM   23  C20 UNL     1       4.124  -1.751   1.083  1.00  0.00     0.036 C 
HETATM   24  O3  UNL     1       3.244   0.247   2.031  1.00  0.00    -0.224 OA
ENDBRANCH  18  21
TORSDOF 1
