REMARK  2 active torsions:
REMARK  status: ('A' for Active; 'I' for Inactive)
REMARK    1  A    between atoms: C13_14  and  C15_16 
REMARK    2  A    between atoms: C16_19  and  C18_21 
ROOT
HETATM    1  C1  UNL     1      -3.232  -1.558  -0.123  1.00  0.00     0.042 A 
HETATM    2  C2  UNL     1      -4.001  -0.420  -0.431  1.00  0.00     0.042 A 
HETATM    3  C3  UNL     1      -5.392  -0.533  -0.535  1.00  0.00     0.003 A 
HETATM    4  C4  UNL     1      -6.022  -1.767  -0.337  1.00  0.00     0.000 A 
HETATM    5  C5  UNL     1      -5.261  -2.893  -0.034  1.00  0.00     0.000 A 
HETATM    6  C6  UNL     1      -3.870  -2.788   0.074  1.00  0.00     0.003 A 
HETATM    7  C7  UNL     1      -3.364   0.903  -0.653  1.00  0.00     0.196 A 
HETATM    8  C8  UNL     1      -1.885   0.982  -0.559  1.00  0.00     0.042 A 
HETATM    9  C9  UNL     1      -1.116  -0.161  -0.255  1.00  0.00     0.040 A 
HETATM   10  C10 UNL     1      -1.754  -1.478  -0.006  1.00  0.00     0.196 A 
HETATM   11  O1  UNL     1      -1.097  -2.475   0.280  1.00  0.00    -0.287 OA
HETATM   12  C11 UNL     1       0.271  -0.014  -0.196  1.00  0.00     0.006 A 
HETATM   13  C12 UNL     1       0.868   1.226  -0.423  1.00  0.00     0.089 A 
HETATM   14  C13 UNL     1       0.131   2.375  -0.709  1.00  0.00     0.033 A 
HETATM   15  C14 UNL     1      -1.260   2.221  -0.779  1.00  0.00     0.004 A 
HETATM   16  O3  UNL     1       2.240   1.147  -0.325  1.00  0.00    -0.331 OA
HETATM   17  C16 UNL     1       2.626  -0.221  -0.176  1.00  0.00     0.153 C 
HETATM   18  C17 UNL     1       1.336  -1.030   0.111  1.00  0.00     0.061 C 
HETATM   19  O5  UNL     1      -4.043   1.893  -0.917  1.00  0.00    -0.287 OA
ENDROOT
BRANCH  17  20
HETATM   20  C18 UNL     1       3.745  -0.380   0.859  1.00  0.00     0.152 C 
HETATM   21  C19 UNL     1       4.953   0.492   0.503  1.00  0.00     0.036 C 
HETATM   22  C20 UNL     1       4.183  -1.841   0.989  1.00  0.00     0.036 C 
HETATM   23  O4  UNL     1       3.261   0.047   2.105  1.00  0.00    -0.224 OA
ENDBRANCH  17  20
BRANCH  14  24
HETATM   24  C15 UNL     1       0.808   3.702  -0.938  1.00  0.00     0.211 C 
HETATM   25  O2  UNL     1       0.032   4.788  -0.448  1.00  0.00    -0.215 OA
ENDBRANCH  14  24
TORSDOF 2
