REMARK  11 active torsions:
REMARK  status: ('A' for Active; 'I' for Inactive)
REMARK    1  A    between atoms: C2_2  and  O12_50 
REMARK    2  A    between atoms: C16_16  and  C33_41 
REMARK    3  A    between atoms: C17_17  and  O1_18 
REMARK    4  A    between atoms: O1_18  and  C18_19 
REMARK    5  A    between atoms: C21_23  and  O3_29 
REMARK    6  A    between atoms: O3_29  and  C27_30 
REMARK    7  A    between atoms: C28_32  and  C32_39 
REMARK    8  A    between atoms: O12_50  and  C39_51 
REMARK    9  A    between atoms: C43_56  and  O14_57 
REMARK   10  A    between atoms: O14_57  and  C44_58 
REMARK   11  A    between atoms: C45_60  and  C49_67 
ROOT
HETATM    1  C1  UNL     1      -5.413   1.211  -1.380  1.00  0.00     0.030 C 
HETATM    2  C2  UNL     1      -5.826  -0.266  -1.552  1.00  0.00     0.118 C 
HETATM    3  C3  UNL     1      -4.728  -1.015  -2.341  1.00  0.00     0.025 C 
HETATM    4  C4  UNL     1      -3.316  -0.867  -1.660  1.00  0.00     0.002 C 
HETATM    5  C5  UNL     1      -3.010   0.424  -0.827  1.00  0.00     0.000 C 
HETATM    6  C6  UNL     1      -3.903   1.523  -1.448  1.00  0.00     0.003 C 
HETATM    7  C7  UNL     1      -1.481   0.806  -0.905  1.00  0.00     0.000 C 
HETATM    8  C8  UNL     1      -0.435  -0.364  -0.932  1.00  0.00     0.002 C 
HETATM    9  C9  UNL     1      -0.783  -1.287  -2.135  1.00  0.00     0.000 C 
HETATM   10  C10 UNL     1      -2.200  -1.102  -2.700  1.00  0.00     0.000 C 
HETATM   11  C11 UNL     1       1.059   0.213  -1.046  1.00  0.00     0.028 C 
HETATM   12  C12 UNL     1       1.389   1.209   0.109  1.00  0.00     0.127 C 
HETATM   13  C13 UNL     1       0.388   2.369   0.016  1.00  0.00     0.030 C 
HETATM   14  C14 UNL     1      -1.066   1.895   0.108  1.00  0.00     0.003 C 
HETATM   15  C15 UNL     1       2.869   1.692   0.182  1.00  0.00     0.042 C 
HETATM   16  C16 UNL     1       3.905   0.531   0.197  1.00  0.00     0.131 C 
HETATM   17  C17 UNL     1       3.610  -0.450  -0.979  1.00  0.00     0.136 C 
HETATM   18  C20 UNL     1       2.139  -0.907  -0.981  1.00  0.00     0.033 C 
HETATM   19  C21 UNL     1       5.351   1.122   0.206  1.00  0.00     0.130 C 
HETATM   20  C22 UNL     1       5.561   2.040   1.419  1.00  0.00     0.030 C 
HETATM   21  C23 UNL     1       4.533   3.179   1.598  1.00  0.00     0.003 C 
HETATM   22  C24 UNL     1       3.090   2.705   1.336  1.00  0.00     0.003 C 
HETATM   23  C25 UNL     1       4.638   3.685   3.060  1.00  0.00     0.000 C 
HETATM   24  C26 UNL     1       4.812   4.399   0.694  1.00  0.00     0.000 C 
HETATM   25  O11 UNL     1       1.148   0.547   1.323  1.00  0.00    -0.226 OA
HETATM   26  C34 UNL     1       1.230   0.936  -2.421  1.00  0.00     0.003 C 
HETATM   27  C35 UNL     1      -0.644  -1.296   0.300  1.00  0.00     0.000 C 
HETATM   28  C36 UNL     1      -3.404   0.378   0.673  1.00  0.00     0.000 C 
HETATM   29  C37 UNL     1      -4.810  -0.534  -3.817  1.00  0.00     0.002 C 
HETATM   30  C38 UNL     1      -5.095  -2.527  -2.411  1.00  0.00     0.002 C 
ENDROOT
BRANCH   2  31
HETATM   31  O12 UNL     1      -6.004  -0.936  -0.336  1.00  0.00    -0.332 OA
BRANCH  31  32
HETATM   32  C39 UNL     1      -7.227  -0.836   0.364  1.00  0.00     0.267 C 
HETATM   33  O13 UNL     1      -7.744   0.460   0.175  1.00  0.00    -0.326 OA
HETATM   34  C40 UNL     1      -8.933   0.697   0.883  1.00  0.00     0.181 C 
HETATM   35  C41 UNL     1      -8.716   0.570   2.380  1.00  0.00     0.214 C 
HETATM   36  C42 UNL     1      -8.139  -0.791   2.702  1.00  0.00     0.217 C 
HETATM   37  O21 UNL     1      -7.817   1.555   2.831  1.00  0.00    -0.218 OA
HETATM   38  C43 UNL     1      -6.922  -1.078   1.839  1.00  0.00     0.207 C 
HETATM   39  O20 UNL     1      -7.741  -0.811   4.053  1.00  0.00    -0.218 OA
BRANCH  38  40
HETATM   40  O14 UNL     1      -6.543  -2.399   2.120  1.00  0.00    -0.324 OA
BRANCH  40  41
HETATM   41  C44 UNL     1      -5.163  -2.675   1.988  1.00  0.00     0.270 C 
HETATM   42  O15 UNL     1      -5.142  -3.973   1.438  1.00  0.00    -0.326 OA
HETATM   43  C45 UNL     1      -3.843  -4.418   1.154  1.00  0.00     0.184 C 
HETATM   44  C46 UNL     1      -3.004  -4.436   2.425  1.00  0.00     0.215 C 
HETATM   45  C47 UNL     1      -3.034  -3.098   3.140  1.00  0.00     0.220 C 
HETATM   46  O18 UNL     1      -1.657  -4.717   2.123  1.00  0.00    -0.218 OA
HETATM   47  C48 UNL     1      -4.470  -2.648   3.334  1.00  0.00     0.241 C 
HETATM   48  O17 UNL     1      -2.375  -3.250   4.373  1.00  0.00    -0.218 OA
HETATM   49  O16 UNL     1      -4.497  -1.333   3.838  1.00  0.00    -0.215 OA
BRANCH  43  50
HETATM   50  C49 UNL     1      -3.974  -5.797   0.521  1.00  0.00     0.214 C 
HETATM   51  O19 UNL     1      -2.699  -6.368   0.322  1.00  0.00    -0.218 OA
ENDBRANCH  43  50
ENDBRANCH  40  41
ENDBRANCH  38  40
ENDBRANCH  31  32
ENDBRANCH   2  31
BRANCH  17  52
HETATM   52  O1  UNL     1       3.934   0.085  -2.228  1.00  0.00    -0.304 OA
BRANCH  52  53
HETATM   53  C18 UNL     1       4.582  -0.603  -3.211  1.00  0.00     0.272 C 
HETATM   54  O2  UNL     1       4.985  -0.052  -4.213  1.00  0.00    -0.264 OA
HETATM   55  C19 UNL     1       4.760  -2.100  -3.029  1.00  0.00     0.106 C 
ENDBRANCH  52  53
ENDBRANCH  17  52
BRANCH  16  56
HETATM   56  C33 UNL     1       3.805  -0.272   1.519  1.00  0.00     0.189 C 
HETATM   57  O9  UNL     1       4.432  -1.464   1.476  1.00  0.00    -0.647 OA
HETATM   58  O10 UNL     1       3.299   0.079   2.557  1.00  0.00    -0.647 OA
ENDBRANCH  16  56
BRANCH  19  59
HETATM   59  O3  UNL     1       5.669   1.782  -0.993  1.00  0.00    -0.331 OA
BRANCH  59  60
HETATM   60  C27 UNL     1       7.041   2.095  -1.180  1.00  0.00     0.270 C 
HETATM   61  O4  UNL     1       7.162   3.469  -0.874  1.00  0.00    -0.326 OA
HETATM   62  C28 UNL     1       8.461   3.977  -1.025  1.00  0.00     0.184 C 
HETATM   63  C29 UNL     1       8.917   3.805  -2.468  1.00  0.00     0.215 C 
HETATM   64  C30 UNL     1       8.830   2.346  -2.853  1.00  0.00     0.220 C 
HETATM   65  O7  UNL     1      10.253   4.212  -2.631  1.00  0.00    -0.218 OA
HETATM   66  C31 UNL     1       7.410   1.873  -2.633  1.00  0.00     0.241 C 
HETATM   67  O6  UNL     1       9.180   2.196  -4.205  1.00  0.00    -0.218 OA
HETATM   68  O5  UNL     1       7.352   0.508  -2.965  1.00  0.00    -0.215 OA
BRANCH  62  69
HETATM   69  C32 UNL     1       8.457   5.449  -0.627  1.00  0.00     0.214 C 
HETATM   70  O8  UNL     1       8.310   5.577   0.772  1.00  0.00    -0.218 OA
ENDBRANCH  62  69
ENDBRANCH  59  60
ENDBRANCH  19  59
TORSDOF 11
