REMARK  2 active torsions:
REMARK  status: ('A' for Active; 'I' for Inactive)
REMARK    1  A    between atoms: C13_15  and  C15_17 
REMARK    2  A    between atoms: C16_20  and  C18_22 
ROOT
HETATM    1  C1  UNL     1      -4.958   2.019   2.650  1.00  0.00     0.028 A 
HETATM    2  C2  UNL     1      -5.105   0.638   2.579  1.00  0.00     0.002 A 
HETATM    3  C3  UNL     1      -4.050  -0.143   2.103  1.00  0.00     0.003 A 
HETATM    4  C4  UNL     1      -2.853   0.462   1.705  1.00  0.00     0.044 A 
HETATM    5  C5  UNL     1      -2.708   1.862   1.790  1.00  0.00     0.067 A 
HETATM    6  C6  UNL     1      -3.769   2.654   2.262  1.00  0.00     0.134 A 
HETATM    7  O1  UNL     1      -3.699   4.009   2.358  1.00  0.00    -0.190 OA
HETATM    8  C7  UNL     1      -1.431   2.510   1.377  1.00  0.00     0.198 A 
HETATM    9  C8  UNL     1      -0.335   1.645   0.873  1.00  0.00     0.042 A 
HETATM   10  C9  UNL     1      -0.496   0.248   0.784  1.00  0.00     0.040 A 
HETATM   11  C10 UNL     1      -1.760  -0.407   1.200  1.00  0.00     0.196 A 
HETATM   12  O2  UNL     1      -1.906  -1.625   1.138  1.00  0.00    -0.287 OA
HETATM   13  C11 UNL     1       0.570  -0.503   0.287  1.00  0.00     0.006 A 
HETATM   14  C12 UNL     1       1.760   0.114  -0.099  1.00  0.00     0.089 A 
HETATM   15  C13 UNL     1       1.949   1.493  -0.016  1.00  0.00     0.033 A 
HETATM   16  C14 UNL     1       0.874   2.243   0.480  1.00  0.00     0.004 A 
HETATM   17  O4  UNL     1       2.675  -0.804  -0.562  1.00  0.00    -0.331 OA
HETATM   18  C16 UNL     1       2.092  -2.109  -0.569  1.00  0.00     0.153 A 
HETATM   19  C17 UNL     1       0.679  -1.984   0.056  1.00  0.00     0.061 A 
HETATM   20  O6  UNL     1      -1.266   3.725   1.451  1.00  0.00    -0.286 OA
ENDROOT
BRANCH  18  21
HETATM   21  C18 UNL     1       2.137  -2.708  -1.984  1.00  0.00     0.152 C 
HETATM   22  O5  UNL     1       3.488  -2.797  -2.366  1.00  0.00    -0.224 OA
HETATM   23  C19 UNL     1       1.434  -1.820  -3.014  1.00  0.00     0.036 C 
HETATM   24  C20 UNL     1       1.576  -4.132  -2.013  1.00  0.00     0.036 C 
ENDBRANCH  18  21
BRANCH  15  25
HETATM   25  C15 UNL     1       3.241   2.136  -0.450  1.00  0.00     0.211 C 
HETATM   26  O3  UNL     1       3.013   3.355  -1.147  1.00  0.00    -0.215 OA
ENDBRANCH  15  25
TORSDOF 2
