REMARK  0 active torsions:
REMARK  status: ('A' for Active; 'I' for Inactive)
ROOT
HETATM    1  C1  UNL     1       1.845   0.173  -0.483  1.00  0.00     0.305 C 
HETATM    2  C2  UNL     1       1.231   0.042   0.899  1.00  0.00     0.270 C 
HETATM    3  C3  UNL     1      -0.230  -0.184   0.588  1.00  0.00     0.220 C 
HETATM    4  C4  UNL     1      -0.391   0.558  -0.723  1.00  0.00     0.158 C 
HETATM    5  O1  UNL     1       0.856   0.500  -1.358  1.00  0.00    -0.300 OA
HETATM    6  C5  UNL     1      -1.476  -0.031  -1.619  1.00  0.00     0.036 C 
HETATM    7  O2  UNL     1      -1.040   0.342   1.607  1.00  0.00    -0.217 OA
HETATM    8  O3  UNL     1       1.745  -1.036   1.655  1.00  0.00    -0.210 OA
HETATM    9  O4  UNL     1       3.016   0.062  -0.772  1.00  0.00    -0.261 OA
ENDROOT
TORSDOF 0
