REMARK  4 active torsions:
REMARK  status: ('A' for Active; 'I' for Inactive)
REMARK    1  A    between atoms: C6_6  and  O1_7 
REMARK    2  A    between atoms: O1_7  and  C7_8 
REMARK    3  A    between atoms: C8_10  and  C12_17 
REMARK    4  A    between atoms: C13_19  and  C15_22 
ROOT
HETATM    1  C15 UNL     1      -2.074  -2.467   0.987  1.00  0.00     0.133 C 
HETATM    2  C16 UNL     1      -2.047  -1.608   2.186  1.00  0.00     0.079 C 
HETATM    3  N2  UNL     1      -2.052  -0.948   3.138  1.00  0.00    -0.196 NA
ENDROOT
BRANCH   1   4
HETATM    4  C13 UNL     1      -0.798  -3.246   0.856  1.00  0.00     0.015 A 
HETATM    5  C5  UNL     1       0.479  -2.763   0.422  1.00  0.00     0.039 A 
HETATM    6  C4  UNL     1       1.364  -3.847   0.467  1.00  0.00     0.083 A 
HETATM    7  C6  UNL     1       0.885  -1.458   0.007  1.00  0.00     0.098 A 
HETATM    8  C3  UNL     1       2.726  -3.712   0.105  1.00  0.00     0.019 A 
HETATM    9  N1  UNL     1       0.659  -4.949   0.900  1.00  0.00    -0.244 NA
HETATM   10  C2  UNL     1       3.131  -2.457  -0.289  1.00  0.00     0.004 A 
HETATM   11  C1  UNL     1       2.225  -1.358  -0.335  1.00  0.00     0.024 A 
HETATM   12  C14 UNL     1      -0.651  -4.583   1.137  1.00  0.00     0.096 A 
BRANCH   7  13
HETATM   13  O1  UNL     1      -0.064  -0.472  -0.030  1.00  0.00    -0.304 OA
BRANCH  13  14
HETATM   14  C7  UNL     1       0.208   0.833  -0.489  1.00  0.00     0.274 C 
HETATM   15  O2  UNL     1       0.046   1.653   0.648  1.00  0.00    -0.326 OA
HETATM   16  C8  UNL     1       0.201   3.020   0.361  1.00  0.00     0.184 C 
HETATM   17  C9  UNL     1      -0.833   3.456  -0.672  1.00  0.00     0.215 C 
HETATM   18  C10 UNL     1      -0.695   2.621  -1.929  1.00  0.00     0.220 C 
HETATM   19  O5  UNL     1      -0.655   4.803  -1.035  1.00  0.00    -0.218 OA
HETATM   20  C11 UNL     1      -0.827   1.168  -1.538  1.00  0.00     0.241 C 
HETATM   21  O4  UNL     1      -1.711   2.964  -2.836  1.00  0.00    -0.218 OA
HETATM   22  O3  UNL     1      -0.609   0.355  -2.663  1.00  0.00    -0.215 OA
BRANCH  16  23
HETATM   23  C12 UNL     1       0.057   3.800   1.661  1.00  0.00     0.214 C 
HETATM   24  O6  UNL     1       1.141   3.501   2.519  1.00  0.00    -0.218 OA
ENDBRANCH  16  23
ENDBRANCH  13  14
ENDBRANCH   7  13
ENDBRANCH   1   4
TORSDOF 4
