REMARK  4 active torsions:
REMARK  status: ('A' for Active; 'I' for Inactive)
REMARK    1  A    between atoms: C2_2  and  C7_7 
REMARK    2  A    between atoms: C7_7  and  C8_8 
REMARK    3  A    between atoms: C8_8  and  C9_9 
REMARK    4  A    between atoms: C9_9  and  C10_10 
ROOT
HETATM    1  C8  UNL     1       0.598  -0.108   1.005  1.00  0.00     0.219 C 
HETATM    2  O5  UNL     1       1.668   0.795   0.847  1.00  0.00    -0.217 OA
ENDROOT
BRANCH   1   3
HETATM    3  C7  UNL     1       1.025  -1.516   0.591  1.00  0.00     0.207 C 
HETATM    4  O6  UNL     1       1.960  -2.025   1.530  1.00  0.00    -0.216 OA
BRANCH   3   5
HETATM    5  C2  UNL     1       1.589  -1.615  -0.810  1.00  0.00     0.010 A 
HETATM    6  C1  UNL     1       0.842  -2.188  -1.847  1.00  0.00    -0.002 A 
HETATM    7  C6  UNL     1       1.352  -2.264  -3.144  1.00  0.00    -0.000 A 
HETATM    8  C5  UNL     1       2.627  -1.772  -3.424  1.00  0.00    -0.000 A 
HETATM    9  C4  UNL     1       3.391  -1.214  -2.397  1.00  0.00    -0.000 A 
HETATM   10  C3  UNL     1       2.875  -1.143  -1.102  1.00  0.00    -0.002 A 
ENDBRANCH   3   5
ENDBRANCH   1   3
BRANCH   1  11
HETATM   11  C9  UNL     1      -0.641   0.408   0.270  1.00  0.00     0.215 C 
HETATM   12  O4  UNL     1      -0.338   0.518  -1.103  1.00  0.00    -0.218 OA
BRANCH  11  13
HETATM   13  C10 UNL     1      -1.168   1.770   0.731  1.00  0.00     0.188 C 
HETATM   14  O1  UNL     1      -2.023   2.267  -0.267  1.00  0.00    -0.299 OA
HETATM   15  C11 UNL     1      -3.317   2.328   0.132  1.00  0.00     0.275 C 
HETATM   16  C12 UNL     1      -3.420   1.746   1.520  1.00  0.00     0.131 C 
HETATM   17  O3  UNL     1      -4.234   2.745  -0.540  1.00  0.00    -0.264 OA
HETATM   18  C13 UNL     1      -1.984   1.811   2.016  1.00  0.00     0.192 C 
HETATM   19  O2  UNL     1      -1.725   0.756   2.904  1.00  0.00    -0.220 OA
ENDBRANCH  11  13
ENDBRANCH   1  11
TORSDOF 4
