REMARK  9 active torsions:
REMARK  status: ('A' for Active; 'I' for Inactive)
REMARK    1  A    between atoms: O1_1  and  C1_2 
REMARK    2  A    between atoms: C2_3  and  O2_4 
REMARK    3  A    between atoms: C5_7  and  C9_12 
REMARK    4  A    between atoms: C7_9  and  O3_10 
REMARK    5  A    between atoms: C9_12  and  O9_32 
REMARK    6  A    between atoms: C14_19  and  C15_20 
REMARK    7  A    between atoms: C17_22  and  O8_30 
REMARK    8  A    between atoms: C18_23  and  O7_28 
REMARK    9  A    between atoms: C19_24  and  O6_26 
ROOT
HETATM    1  C9  UNL     1       3.388   0.412  -0.868  1.00  0.00     0.210 C 
HETATM    2  O4  UNL     1       2.744   1.387  -1.689  1.00  0.00    -0.331 OA
HETATM    3  C10 UNL     1       1.943   0.724  -2.630  1.00  0.00     0.148 C 
HETATM    4  C11 UNL     1       1.333  -0.445  -1.877  1.00  0.00     0.069 C 
HETATM    5  C12 UNL     1       2.526  -0.858  -1.008  1.00  0.00     0.091 C 
HETATM    6  C13 UNL     1       1.804  -1.396   0.218  1.00  0.00     0.148 C 
HETATM    7  O5  UNL     1       0.649  -0.622   0.401  1.00  0.00    -0.352 OA
HETATM    8  C14 UNL     1       0.263  -0.083  -0.845  1.00  0.00     0.140 C 
ENDROOT
BRANCH   1   9
HETATM    9  C5  UNL     1       3.498   0.950   0.567  1.00  0.00     0.033 A 
HETATM   10  C4  UNL     1       2.481   1.716   1.136  1.00  0.00     0.027 A 
HETATM   11  C2  UNL     1       2.492   2.173   2.457  1.00  0.00     0.118 A 
HETATM   12  C1  UNL     1       3.596   1.858   3.278  1.00  0.00     0.138 A 
HETATM   13  C7  UNL     1       4.692   1.152   2.728  1.00  0.00     0.118 A 
HETATM   14  C6  UNL     1       4.598   0.721   1.395  1.00  0.00     0.027 A 
BRANCH  11  15
HETATM   15  O2  UNL     1       1.437   2.852   3.023  1.00  0.00    -0.326 OA
HETATM   16  C3  UNL     1       0.177   2.794   2.390  1.00  0.00     0.181 C 
ENDBRANCH  11  15
BRANCH  12  17
HETATM   17  O1  UNL     1       3.508   2.344   4.565  1.00  0.00    -0.324 OA
HETATM   18  C25 UNL     1       4.615   2.357   5.431  1.00  0.00     0.182 C 
ENDBRANCH  12  17
BRANCH  13  19
HETATM   19  O3  UNL     1       5.803   0.903   3.496  1.00  0.00    -0.326 OA
HETATM   20  C8  UNL     1       6.949   0.328   2.913  1.00  0.00     0.181 C 
ENDBRANCH  13  19
ENDBRANCH   1   9
BRANCH   1  21
HETATM   21  O9  UNL     1       4.669   0.334  -1.494  1.00  0.00    -0.329 OA
HETATM   22  C24 UNL     1       5.336  -0.910  -1.444  1.00  0.00     0.177 C 
ENDBRANCH   1  21
BRANCH   8  23
HETATM   23  C15 UNL     1      -1.172  -0.445  -1.165  1.00  0.00     0.009 C 
HETATM   24  C16 UNL     1      -2.185   0.499  -1.014  1.00  0.00     0.024 C 
HETATM   25  C17 UNL     1      -3.524   0.202  -1.280  1.00  0.00     0.118 C 
HETATM   26  C18 UNL     1      -3.899  -1.128  -1.565  1.00  0.00     0.138 C 
HETATM   27  C19 UNL     1      -2.894  -2.109  -1.749  1.00  0.00     0.118 C 
HETATM   28  C20 UNL     1      -1.558  -1.734  -1.527  1.00  0.00     0.024 C 
BRANCH  25  29
HETATM   29  O8  UNL     1      -4.476   1.160  -1.032  1.00  0.00    -0.326 OA
HETATM   30  C23 UNL     1      -4.771   1.963  -2.152  1.00  0.00     0.181 C 
ENDBRANCH  25  29
BRANCH  26  31
HETATM   31  O7  UNL     1      -5.256  -1.320  -1.715  1.00  0.00    -0.324 OA
HETATM   32  C22 UNL     1      -5.780  -2.504  -2.262  1.00  0.00     0.182 C 
ENDBRANCH  26  31
BRANCH  27  33
HETATM   33  O6  UNL     1      -3.243  -3.400  -2.062  1.00  0.00    -0.326 OA
HETATM   34  C21 UNL     1      -2.263  -4.410  -2.070  1.00  0.00     0.181 C 
ENDBRANCH  27  33
ENDBRANCH   8  23
TORSDOF 9
