REMARK  6 active torsions:
REMARK  status: ('A' for Active; 'I' for Inactive)
REMARK    1  A    between atoms: O1_1  and  C1_2 
REMARK    2  A    between atoms: C2_3  and  O2_4 
REMARK    3  A    between atoms: C5_7  and  C9_12 
REMARK    4  A    between atoms: C7_9  and  O3_10 
REMARK    5  A    between atoms: C9_12  and  O8_29 
REMARK    6  A    between atoms: C14_19  and  C15_20 
ROOT
HETATM    1  C9  UNL     1       2.126   0.224  -1.137  1.00  0.00     0.210 C 
HETATM    2  O4  UNL     1       1.499   1.216  -1.953  1.00  0.00    -0.331 OA
HETATM    3  C10 UNL     1       0.732   0.566  -2.930  1.00  0.00     0.148 C 
HETATM    4  C11 UNL     1       0.093  -0.605  -2.206  1.00  0.00     0.069 C 
HETATM    5  C12 UNL     1       1.239  -1.028  -1.281  1.00  0.00     0.091 C 
HETATM    6  C13 UNL     1       0.462  -1.526  -0.071  1.00  0.00     0.148 C 
HETATM    7  O5  UNL     1      -0.704  -0.753   0.037  1.00  0.00    -0.352 OA
HETATM    8  C14 UNL     1      -1.030  -0.237  -1.236  1.00  0.00     0.140 C 
ENDROOT
BRANCH   1   9
HETATM    9  C5  UNL     1       2.250   0.756   0.296  1.00  0.00     0.033 A 
HETATM   10  C4  UNL     1       1.224   1.499   0.881  1.00  0.00     0.027 A 
HETATM   11  C2  UNL     1       1.254   1.962   2.199  1.00  0.00     0.118 A 
HETATM   12  C1  UNL     1       2.379   1.671   3.000  1.00  0.00     0.138 A 
HETATM   13  C7  UNL     1       3.479   0.984   2.434  1.00  0.00     0.118 A 
HETATM   14  C6  UNL     1       3.369   0.548   1.104  1.00  0.00     0.027 A 
BRANCH  11  15
HETATM   15  O2  UNL     1       0.202   2.630   2.784  1.00  0.00    -0.326 OA
HETATM   16  C3  UNL     1      -1.056   2.605   2.149  1.00  0.00     0.181 C 
ENDBRANCH  11  15
BRANCH  12  17
HETATM   17  O1  UNL     1       2.308   2.163   4.287  1.00  0.00    -0.324 OA
HETATM   18  C23 UNL     1       3.439   2.224   5.120  1.00  0.00     0.182 C 
ENDBRANCH  12  17
BRANCH  13  19
HETATM   19  O3  UNL     1       4.604   0.749   3.187  1.00  0.00    -0.326 OA
HETATM   20  C8  UNL     1       5.726   0.125   2.608  1.00  0.00     0.181 C 
ENDBRANCH  13  19
ENDBRANCH   1   9
BRANCH   1  21
HETATM   21  O8  UNL     1       3.403   0.125  -1.770  1.00  0.00    -0.329 OA
HETATM   22  C22 UNL     1       4.054  -1.127  -1.707  1.00  0.00     0.177 C 
ENDBRANCH   1  21
BRANCH   8  23
HETATM   23  C15 UNL     1      -2.416  -0.674  -1.671  1.00  0.00     0.007 A 
HETATM   24  C16 UNL     1      -3.411   0.284  -1.932  1.00  0.00     0.000 A 
HETATM   25  C17 UNL     1      -4.717  -0.071  -2.287  1.00  0.00     0.026 A 
HETATM   26  C18 UNL     1      -5.003  -1.429  -2.375  1.00  0.00     0.119 A 
HETATM   27  C19 UNL     1      -4.027  -2.389  -2.129  1.00  0.00     0.119 A 
HETATM   28  O7  UNL     1      -6.192  -2.058  -2.688  1.00  0.00    -0.300 OA
HETATM   29  C20 UNL     1      -2.728  -2.038  -1.774  1.00  0.00     0.024 A 
HETATM   30  O6  UNL     1      -4.584  -3.645  -2.283  1.00  0.00    -0.300 OA
HETATM   31  C21 UNL     1      -5.964  -3.471  -2.629  1.00  0.00     0.304 A 
ENDBRANCH   8  23
TORSDOF 6
