REMARK  6 active torsions:
REMARK  status: ('A' for Active; 'I' for Inactive)
REMARK    1  A    between atoms: C7_7  and  C14_16 
REMARK    2  A    between atoms: C7_7  and  C20_24 
REMARK    3  A    between atoms: C9_9  and  O1_11 
REMARK    4  A    between atoms: O1_11  and  C11_12 
REMARK    5  A    between atoms: C14_16  and  C15_17 
REMARK    6  A    between atoms: C15_17  and  C16_18 
ROOT
HETATM    1  C1  UNL     1      -5.142   0.849   0.975  1.00  0.00     0.032 C 
HETATM    2  C2  UNL     1      -5.706  -0.539   0.730  1.00  0.00     0.142 A 
HETATM    3  C3  UNL     1      -5.014  -1.479  -0.048  1.00  0.00     0.142 A 
HETATM    4  C4  UNL     1      -3.602  -1.181  -0.610  1.00  0.00     0.030 C 
HETATM    5  C5  UNL     1      -2.951   0.054   0.077  1.00  0.00     0.010 C 
HETATM    6  C6  UNL     1      -3.954   1.226   0.076  1.00  0.00     0.003 C 
HETATM    7  C7  UNL     1      -1.462   0.354  -0.302  1.00  0.00     0.068 C 
HETATM    8  C8  UNL     1      -0.613  -0.965  -0.344  1.00  0.00     0.035 C 
HETATM    9  C9  UNL     1      -1.352  -2.129   0.341  1.00  0.00     0.125 C 
HETATM   10  C10 UNL     1      -2.690  -2.420  -0.345  1.00  0.00     0.033 C 
HETATM   11  C13 UNL     1      -0.015  -1.368  -1.709  1.00  0.00     0.003 C 
HETATM   12  C21 UNL     1      -3.722  -1.020  -2.147  1.00  0.00     0.003 C 
HETATM   13  O6  UNL     1      -6.092  -0.628  -0.754  1.00  0.00    -0.354 OA
ENDROOT
BRANCH   7  14
HETATM   14  C14 UNL     1      -0.854   1.283   0.800  1.00  0.00     0.077 C 
BRANCH  14  15
HETATM   15  C15 UNL     1       0.452   1.978   0.429  1.00  0.00     0.175 C 
HETATM   16  O4  UNL     1       1.521   1.391   0.545  1.00  0.00    -0.291 OA
BRANCH  15  17
HETATM   17  C16 UNL     1       0.408   3.364  -0.093  1.00  0.00     0.061 A 
HETATM   18  C17 UNL     1      -0.687   4.160  -0.286  1.00  0.00     0.126 A 
HETATM   19  O3  UNL     1      -0.311   5.360  -0.805  1.00  0.00    -0.303 OA
HETATM   20  C18 UNL     1       1.046   5.314  -0.949  1.00  0.00     0.123 A 
HETATM   21  C19 UNL     1       1.546   4.118  -0.531  1.00  0.00     0.032 A 
ENDBRANCH  15  17
ENDBRANCH  14  15
ENDBRANCH   7  14
BRANCH   7  22
HETATM   22  C20 UNL     1      -1.340   1.142  -1.607  1.00  0.00     0.207 C 
HETATM   23  O5  UNL     1      -2.260   1.680  -2.173  1.00  0.00    -0.288 OA
ENDBRANCH   7  22
BRANCH   9  24
HETATM   24  O1  UNL     1      -0.571  -3.295   0.327  1.00  0.00    -0.304 OA
BRANCH  24  25
HETATM   25  C11 UNL     1      -0.099  -3.935   1.435  1.00  0.00     0.272 C 
HETATM   26  O2  UNL     1       0.516  -4.978   1.354  1.00  0.00    -0.264 OA
HETATM   27  C12 UNL     1      -0.337  -3.276   2.781  1.00  0.00     0.106 C 
ENDBRANCH  24  25
ENDBRANCH   9  24
TORSDOF 6
