REMARK  3 active torsions:
REMARK  status: ('A' for Active; 'I' for Inactive)
REMARK    1  A    between atoms: C1_1  and  C22_28 
REMARK    2  A    between atoms: C4_4  and  C12_14 
REMARK    3  A    between atoms: C22_28  and  C23_29 
ROOT
HETATM    1  C1  UNL     1      -1.534   0.738  -1.058  1.00  0.00     0.050 C 
HETATM    2  C2  UNL     1      -2.597  -0.346  -1.194  1.00  0.00    -0.019 A 
HETATM    3  C3  UNL     1      -2.537  -1.636  -0.636  1.00  0.00    -0.019 A 
HETATM    4  C4  UNL     1      -1.434  -2.192   0.250  1.00  0.00     0.049 C 
HETATM    5  C5  UNL     1      -0.325  -1.250   0.726  1.00  0.00     0.035 C 
HETATM    6  C6  UNL     1       0.463  -0.686  -0.428  1.00  0.00    -0.021 A 
HETATM    7  C7  UNL     1      -0.105   0.268  -1.283  1.00  0.00     0.004 A 
HETATM    8  C8  UNL     1       0.679   0.807  -2.321  1.00  0.00     0.129 A 
HETATM    9  C9  UNL     1       1.997   0.365  -2.477  1.00  0.00     0.054 A 
HETATM   10  C10 UNL     1       2.573  -0.603  -1.656  1.00  0.00     0.133 A 
HETATM   11  C11 UNL     1       1.781  -1.110  -0.626  1.00  0.00     0.023 A 
HETATM   12  O1  UNL     1       3.859  -1.001  -1.836  1.00  0.00    -0.190 OA
HETATM   13  O2  UNL     1       0.224   1.790  -3.145  1.00  0.00    -0.190 OA
HETATM   14  C18 UNL     1      -3.574  -2.533  -0.935  1.00  0.00     0.025 A 
HETATM   15  C19 UNL     1      -4.690  -2.202  -1.702  1.00  0.00     0.156 A 
HETATM   16  C20 UNL     1      -4.786  -0.903  -2.199  1.00  0.00     0.156 A 
HETATM   17  C21 UNL     1      -3.743  -0.014  -1.936  1.00  0.00     0.025 A 
HETATM   18  O5  UNL     1      -5.871  -0.552  -2.938  1.00  0.00    -0.188 OA
HETATM   19  O6  UNL     1      -5.672  -3.105  -1.954  1.00  0.00    -0.188 OA
ENDROOT
BRANCH   1  20
HETATM   20  C22 UNL     1      -1.694   1.629   0.188  1.00  0.00     0.035 C 
BRANCH  20  21
HETATM   21  C23 UNL     1      -2.205   3.055   0.077  1.00  0.00    -0.017 A 
HETATM   22  C24 UNL     1      -2.461   3.740   1.272  1.00  0.00     0.023 A 
HETATM   23  C25 UNL     1      -2.897   5.067   1.309  1.00  0.00     0.133 A 
HETATM   24  C26 UNL     1      -3.080   5.722   0.090  1.00  0.00     0.055 A 
HETATM   25  O8  UNL     1      -3.120   5.709   2.486  1.00  0.00    -0.190 OA
HETATM   26  C27 UNL     1      -2.842   5.089  -1.132  1.00  0.00     0.133 A 
HETATM   27  C28 UNL     1      -2.398   3.762  -1.117  1.00  0.00     0.023 A 
HETATM   28  O7  UNL     1      -3.019   5.749  -2.307  1.00  0.00    -0.190 OA
ENDBRANCH  20  21
ENDBRANCH   1  20
BRANCH   4  29
HETATM   29  C12 UNL     1      -2.072  -2.807   1.486  1.00  0.00    -0.016 A 
HETATM   30  C13 UNL     1      -1.871  -4.151   1.817  1.00  0.00    -0.002 A 
HETATM   31  C14 UNL     1      -2.470  -4.697   2.953  1.00  0.00     0.029 A 
HETATM   32  C15 UNL     1      -3.274  -3.920   3.791  1.00  0.00     0.156 A 
HETATM   33  C16 UNL     1      -3.476  -2.572   3.477  1.00  0.00     0.156 A 
HETATM   34  O4  UNL     1      -3.861  -4.437   4.902  1.00  0.00    -0.188 OA
HETATM   35  C17 UNL     1      -2.877  -2.038   2.334  1.00  0.00     0.026 A 
HETATM   36  O3  UNL     1      -4.250  -1.800   4.284  1.00  0.00    -0.188 OA
ENDBRANCH   4  29
TORSDOF 3
