REMARK  4 active torsions:
REMARK  status: ('A' for Active; 'I' for Inactive)
REMARK    1  A    between atoms: C4_4  and  O7_27 
REMARK    2  A    between atoms: C5_5  and  C6_7 
REMARK    3  A    between atoms: C12_16  and  C15_20 
REMARK    4  A    between atoms: O7_27  and  C21_28 
ROOT
HETATM    1  C1  UNL     1       1.103  -1.743  -1.129  1.00  0.00     0.159 C 
HETATM    2  C2  UNL     1       0.744  -3.222  -1.185  1.00  0.00     0.239 C 
HETATM    3  C3  UNL     1      -0.682  -3.473  -0.732  1.00  0.00     0.216 C 
HETATM    4  C4  UNL     1      -1.712  -2.486  -1.269  1.00  0.00     0.222 C 
HETATM    5  C5  UNL     1      -1.190  -1.068  -1.039  1.00  0.00     0.110 C 
HETATM    6  O1  UNL     1       0.087  -0.917  -1.632  1.00  0.00    -0.332 OA
HETATM    7  O12 UNL     1      -0.993  -4.421  -0.048  1.00  0.00    -0.290 OA
HETATM    8  O13 UNL     1       0.907  -3.707  -2.507  1.00  0.00    -0.213 OA
HETATM    9  C27 UNL     1       1.591  -1.302   0.251  1.00  0.00     0.036 C 
ENDROOT
BRANCH   5  10
HETATM   10  C6  UNL     1      -1.314  -0.369   0.322  1.00  0.00     0.072 A 
HETATM   11  C7  UNL     1      -1.229   1.043   0.305  1.00  0.00     0.140 A 
HETATM   12  O2  UNL     1      -1.065   1.675  -0.893  1.00  0.00    -0.190 OA
HETATM   13  C8  UNL     1      -1.272   1.769   1.510  1.00  0.00     0.087 A 
HETATM   14  C9  UNL     1      -1.398   1.132   2.753  1.00  0.00     0.107 A 
HETATM   15  C14 UNL     1      -1.198   3.252   1.534  1.00  0.00     0.202 A 
HETATM   16  C10 UNL     1      -1.528  -0.255   2.720  1.00  0.00     0.052 A 
HETATM   17  O4  UNL     1      -1.407   1.768   3.961  1.00  0.00    -0.307 OA
HETATM   18  C11 UNL     1      -1.509  -1.022   1.551  1.00  0.00     0.137 A 
HETATM   19  O3  UNL     1      -1.669  -2.363   1.699  1.00  0.00    -0.190 OA
HETATM   20  C12 UNL     1      -1.389   3.133   3.998  1.00  0.00     0.103 A 
HETATM   21  C13 UNL     1      -1.278   3.877   2.873  1.00  0.00     0.067 A 
HETATM   22  O5  UNL     1      -1.097   3.963   0.540  1.00  0.00    -0.286 OA
BRANCH  20  23
HETATM   23  C15 UNL     1      -1.412   3.812   5.316  1.00  0.00     0.023 A 
HETATM   24  C16 UNL     1      -1.048   3.081   6.460  1.00  0.00     0.004 A 
HETATM   25  C17 UNL     1      -1.021   3.674   7.722  1.00  0.00     0.028 A 
HETATM   26  C18 UNL     1      -1.374   5.014   7.905  1.00  0.00     0.131 A 
HETATM   27  C19 UNL     1      -1.767   5.735   6.774  1.00  0.00     0.028 A 
HETATM   28  O6  UNL     1      -1.342   5.582   9.139  1.00  0.00    -0.190 OA
HETATM   29  C20 UNL     1      -1.789   5.151   5.506  1.00  0.00     0.004 A 
ENDBRANCH  20  23
ENDBRANCH   5  10
BRANCH   4  30
HETATM   30  O7  UNL     1      -1.830  -2.777  -2.646  1.00  0.00    -0.317 OA
BRANCH  30  31
HETATM   31  C21 UNL     1      -2.886  -2.150  -3.338  1.00  0.00     0.270 C 
HETATM   32  O8  UNL     1      -3.867  -3.144  -3.512  1.00  0.00    -0.329 OA
HETATM   33  C22 UNL     1      -4.980  -2.697  -4.242  1.00  0.00     0.151 C 
HETATM   34  C23 UNL     1      -4.593  -2.106  -5.597  1.00  0.00     0.212 C 
HETATM   35  C26 UNL     1      -5.883  -1.787  -3.404  1.00  0.00     0.035 C 
HETATM   36  C24 UNL     1      -3.414  -1.149  -5.551  1.00  0.00     0.220 C 
HETATM   37  O11 UNL     1      -4.256  -3.161  -6.471  1.00  0.00    -0.218 OA
HETATM   38  C25 UNL     1      -2.324  -1.714  -4.670  1.00  0.00     0.241 C 
HETATM   39  O10 UNL     1      -3.799   0.096  -5.020  1.00  0.00    -0.218 OA
HETATM   40  O9  UNL     1      -1.361  -0.713  -4.439  1.00  0.00    -0.215 OA
ENDBRANCH  30  31
ENDBRANCH   4  30
TORSDOF 4
