REMARK  4 active torsions:
REMARK  status: ('A' for Active; 'I' for Inactive)
REMARK    1  A    between atoms: C2_2  and  C3_3 
REMARK    2  A    between atoms: C4_4  and  C5_5 
REMARK    3  A    between atoms: C15_19  and  C17_21 
REMARK    4  A    between atoms: C18_22  and  C19_23 
ROOT
HETATM    1  C3  UNL     1       0.016  -0.325  -2.529  1.00  0.00     0.175 C 
HETATM    2  C4  UNL     1      -0.420   0.692  -1.478  1.00  0.00     0.175 C 
HETATM    3  O3  UNL     1      -0.040   0.235  -0.205  1.00  0.00    -0.324 OA
HETATM    4  C11 UNL     1       1.246  -0.221  -0.132  1.00  0.00     0.117 A 
HETATM    5  C12 UNL     1       1.986  -0.502  -1.292  1.00  0.00     0.117 A 
HETATM    6  O4  UNL     1       1.421  -0.422  -2.535  1.00  0.00    -0.324 OA
HETATM    7  C13 UNL     1       3.294  -0.980  -1.138  1.00  0.00     0.026 A 
HETATM    8  C14 UNL     1       3.896  -1.097   0.113  1.00  0.00     0.002 A 
HETATM    9  C15 UNL     1       3.200  -0.738   1.278  1.00  0.00     0.002 A 
HETATM   10  C16 UNL     1       1.875  -0.308   1.116  1.00  0.00     0.026 A 
ENDROOT
BRANCH   9  11
HETATM   11  C17 UNL     1       3.869  -0.862   2.584  1.00  0.00     0.000 C 
HETATM   12  C18 UNL     1       3.350  -0.469   3.773  1.00  0.00     0.000 C 
BRANCH  12  13
HETATM   13  C19 UNL     1       3.989  -0.597   5.093  1.00  0.00     0.004 A 
HETATM   14  C20 UNL     1       3.276  -0.159   6.222  1.00  0.00     0.028 A 
HETATM   15  C21 UNL     1       3.799  -0.245   7.512  1.00  0.00     0.133 A 
HETATM   16  C22 UNL     1       5.078  -0.789   7.664  1.00  0.00     0.055 A 
HETATM   17  O6  UNL     1       3.081   0.183   8.584  1.00  0.00    -0.190 OA
HETATM   18  C23 UNL     1       5.829  -1.238   6.576  1.00  0.00     0.133 A 
HETATM   19  C24 UNL     1       5.269  -1.133   5.298  1.00  0.00     0.028 A 
HETATM   20  O5  UNL     1       7.069  -1.761   6.765  1.00  0.00    -0.190 OA
ENDBRANCH  12  13
ENDBRANCH   9  11
BRANCH   2  21
HETATM   21  C5  UNL     1      -1.921   0.914  -1.502  1.00  0.00     0.010 A 
HETATM   22  C6  UNL     1      -2.466   2.158  -1.835  1.00  0.00     0.000 A 
HETATM   23  C7  UNL     1      -3.849   2.341  -1.854  1.00  0.00     0.029 A 
HETATM   24  C8  UNL     1      -4.722   1.293  -1.547  1.00  0.00     0.156 A 
HETATM   25  C9  UNL     1      -4.188   0.044  -1.212  1.00  0.00     0.156 A 
HETATM   26  O2  UNL     1      -6.071   1.453  -1.562  1.00  0.00    -0.188 OA
HETATM   27  C10 UNL     1      -2.802  -0.126  -1.192  1.00  0.00     0.028 A 
HETATM   28  O1  UNL     1      -5.018  -0.986  -0.904  1.00  0.00    -0.188 OA
ENDBRANCH   2  21
BRANCH   1  29
HETATM   29  C2  UNL     1      -0.484   0.068  -3.907  1.00  0.00     0.012 A 
HETATM   30  C1  UNL     1      -1.398  -0.732  -4.601  1.00  0.00     0.026 A 
HETATM   31  C28 UNL     1      -1.885  -0.372  -5.860  1.00  0.00     0.133 A 
HETATM   32  C27 UNL     1      -1.441   0.832  -6.415  1.00  0.00     0.055 A 
HETATM   33  O7  UNL     1      -2.773  -1.165  -6.515  1.00  0.00    -0.190 OA
HETATM   34  C26 UNL     1      -0.532   1.665  -5.757  1.00  0.00     0.133 A 
HETATM   35  C25 UNL     1      -0.062   1.259  -4.505  1.00  0.00     0.026 A 
HETATM   36  O8  UNL     1      -0.124   2.831  -6.322  1.00  0.00    -0.190 OA
ENDBRANCH   1  29
TORSDOF 4
