REMARK  6 active torsions:
REMARK  status: ('A' for Active; 'I' for Inactive)
REMARK    1  A    between atoms: C6_6  and  C7_7 
REMARK    2  A    between atoms: C11_11  and  C20_23 
REMARK    3  A    between atoms: C12_12  and  C13_13 
REMARK    4  A    between atoms: C13_13  and  C14_14 
REMARK    5  A    between atoms: C27_33  and  C36_46 
REMARK    6  A    between atoms: C36_46  and  C37_47 
ROOT
HETATM    1  C1  UNL     1      -4.682  -1.759  -0.888  1.00  0.00     0.117 C 
HETATM    2  C2  UNL     1      -4.882  -2.982  -0.034  1.00  0.00     0.108 C 
HETATM    3  C3  UNL     1      -3.707  -3.771   0.427  1.00  0.00     0.119 C 
HETATM    4  C4  UNL     1      -2.483  -3.235   0.196  1.00  0.00     0.070 C 
HETATM    5  C5  UNL     1      -2.237  -1.956  -0.498  1.00  0.00     0.100 C 
HETATM    6  C6  UNL     1      -3.289  -1.188  -0.928  1.00  0.00     0.044 C 
HETATM    7  O6  UNL     1      -0.979  -1.439  -0.651  1.00  0.00    -0.326 OA
HETATM    8  C27 UNL     1       0.186  -2.016  -0.120  1.00  0.00     0.178 C 
HETATM    9  C28 UNL     1      -0.058  -3.055   0.991  1.00  0.00     0.293 C 
HETATM   10  C29 UNL     1      -1.270  -3.920   0.756  1.00  0.00     0.169 C 
HETATM   11  O7  UNL     1      -1.171  -5.191   1.079  1.00  0.00    -0.190 OA
HETATM   12  O8  UNL     1      -0.132  -2.345   2.227  1.00  0.00    -0.301 OA
HETATM   13  C30 UNL     1       0.547  -1.152   2.069  1.00  0.00     0.098 A 
HETATM   14  C31 UNL     1       0.828  -0.935   0.726  1.00  0.00     0.030 A 
HETATM   15  C32 UNL     1       1.451   0.246   0.332  1.00  0.00     0.002 A 
HETATM   16  C33 UNL     1       1.750   1.196   1.313  1.00  0.00     0.027 A 
HETATM   17  C34 UNL     1       1.466   0.993   2.671  1.00  0.00     0.133 A 
HETATM   18  C35 UNL     1       0.854  -0.209   3.050  1.00  0.00     0.051 A 
HETATM   19  O9  UNL     1       1.667   1.995   3.568  1.00  0.00    -0.190 OA
HETATM   20  O10 UNL     1       1.038  -3.956   1.100  1.00  0.00    -0.185 OA
HETATM   21  O11 UNL     1      -3.912  -4.906   1.148  1.00  0.00    -0.194 OA
HETATM   22  O12 UNL     1      -5.792  -1.074  -1.267  1.00  0.00    -0.194 OA
ENDROOT
BRANCH   6  23
HETATM   23  C7  UNL     1      -2.978   0.218  -1.450  1.00  0.00     0.002 C 
HETATM   24  C8  UNL     1      -3.964   0.910  -2.354  1.00  0.00    -0.009 C 
HETATM   25  C9  UNL     1      -3.921   2.232  -2.588  1.00  0.00    -0.043 C 
HETATM   26  C10 UNL     1      -2.889   3.104  -1.912  1.00  0.00     0.031 C 
HETATM   27  C26 UNL     1      -4.803   2.896  -3.615  1.00  0.00     0.026 C 
HETATM   28  C11 UNL     1      -2.727   2.664  -0.453  1.00  0.00     0.054 C 
HETATM   29  C12 UNL     1      -2.406   1.155  -0.351  1.00  0.00     0.021 C 
BRANCH  28  30
HETATM   30  C20 UNL     1      -1.710   3.430   0.383  1.00  0.00     0.007 A 
HETATM   31  C21 UNL     1      -1.951   3.640   1.752  1.00  0.00     0.129 A 
HETATM   32  O4  UNL     1      -3.107   3.229   2.342  1.00  0.00    -0.190 OA
HETATM   33  C22 UNL     1      -0.914   4.132   2.552  1.00  0.00     0.054 A 
HETATM   34  C23 UNL     1       0.327   4.509   2.036  1.00  0.00     0.133 A 
HETATM   35  C24 UNL     1       0.515   4.379   0.659  1.00  0.00     0.027 A 
HETATM   36  O5  UNL     1       1.322   4.967   2.838  1.00  0.00    -0.190 OA
HETATM   37  C25 UNL     1      -0.479   3.830  -0.149  1.00  0.00     0.000 A 
ENDBRANCH  28  30
BRANCH  29  38
HETATM   38  C13 UNL     1      -2.514   0.671   1.097  1.00  0.00     0.194 C 
HETATM   39  O3  UNL     1      -1.520   0.805   1.804  1.00  0.00    -0.287 OA
BRANCH  38  40
HETATM   40  C14 UNL     1      -3.723   0.066   1.732  1.00  0.00     0.064 A 
HETATM   41  C15 UNL     1      -3.491  -0.826   2.789  1.00  0.00     0.007 A 
HETATM   42  C16 UNL     1      -4.544  -1.456   3.449  1.00  0.00     0.028 A 
HETATM   43  C17 UNL     1      -5.865  -1.205   3.077  1.00  0.00     0.133 A 
HETATM   44  C18 UNL     1      -6.079  -0.315   2.020  1.00  0.00     0.055 A 
HETATM   45  O2  UNL     1      -6.906  -1.818   3.697  1.00  0.00    -0.190 OA
HETATM   46  C19 UNL     1      -5.046   0.342   1.343  1.00  0.00     0.136 A 
HETATM   47  O1  UNL     1      -5.362   1.175   0.321  1.00  0.00    -0.190 OA
ENDBRANCH  38  40
ENDBRANCH  29  38
ENDBRANCH   6  23
BRANCH   8  48
HETATM   48  C36 UNL     1       1.074  -2.536  -1.258  1.00  0.00     0.063 C 
BRANCH  48  49
HETATM   49  C37 UNL     1       1.179  -1.667  -2.488  1.00  0.00    -0.032 C 
HETATM   50  C38 UNL     1       1.888  -1.978  -3.588  1.00  0.00    -0.048 C 
HETATM   51  C39 UNL     1       1.934  -1.056  -4.783  1.00  0.00     0.026 C 
HETATM   52  C40 UNL     1       2.686  -3.251  -3.744  1.00  0.00     0.026 C 
ENDBRANCH  48  49
ENDBRANCH   8  48
TORSDOF 6
