REMARK  3 active torsions:
REMARK  status: ('A' for Active; 'I' for Inactive)
REMARK    1  A    between atoms: C6_7  and  C9_10 
REMARK    2  A    between atoms: C10_11  and  C17_18 
REMARK    3  A    between atoms: C18_19  and  C19_20 
ROOT
HETATM    1  C9  UNL     1       2.383  -0.367  -0.862  1.00  0.00     0.047 C 
HETATM    2  C10 UNL     1       2.392   0.671   0.285  1.00  0.00     0.026 C 
HETATM    3  C11 UNL     1       3.204   0.176   1.503  1.00  0.00     0.005 C 
HETATM    4  C12 UNL     1       3.027   1.972  -0.255  1.00  0.00     0.009 C 
HETATM    5  C13 UNL     1       4.472   1.775  -0.734  1.00  0.00     0.022 C 
HETATM    6  C14 UNL     1       4.643   0.520  -1.552  1.00  0.00    -0.048 C 
HETATM    7  C15 UNL     1       3.705  -0.440  -1.590  1.00  0.00    -0.030 C 
HETATM    8  C16 UNL     1       5.945   0.395  -2.304  1.00  0.00     0.026 C 
ENDROOT
BRANCH   2   9
HETATM    9  C17 UNL     1       0.970   0.965   0.754  1.00  0.00    -0.026 C 
HETATM   10  C18 UNL     1      -0.005   1.481  -0.021  1.00  0.00    -0.005 C 
BRANCH  10  11
HETATM   11  C19 UNL     1      -1.380   1.794   0.406  1.00  0.00    -0.000 A 
HETATM   12  C20 UNL     1      -2.180   2.516  -0.471  1.00  0.00     0.002 A 
HETATM   13  C21 UNL     1      -3.507   2.830  -0.091  1.00  0.00     0.019 A 
HETATM   14  C22 UNL     1      -4.014   2.409   1.143  1.00  0.00     0.081 A 
HETATM   15  C26 UNL     1      -4.537   3.555  -0.762  1.00  0.00     0.022 A 
HETATM   16  C23 UNL     1      -3.217   1.654   2.038  1.00  0.00     0.019 A 
HETATM   17  N2  UNL     1      -5.314   2.862   1.225  1.00  0.00    -0.244 NA
HETATM   18  C24 UNL     1      -1.927   1.357   1.654  1.00  0.00     0.002 A 
HETATM   19  C25 UNL     1      -5.630   3.558   0.069  1.00  0.00     0.099 A 
ENDBRANCH  10  11
ENDBRANCH   2   9
BRANCH   1  20
HETATM   20  C6  UNL     1       1.917  -1.743  -0.418  1.00  0.00    -0.018 A 
HETATM   21  C5  UNL     1       0.578  -2.077  -0.515  1.00  0.00    -0.002 A 
HETATM   22  C4  UNL     1       0.159  -3.367  -0.105  1.00  0.00     0.019 A 
HETATM   23  C1  UNL     1      -1.126  -3.987  -0.103  1.00  0.00     0.022 A 
HETATM   24  C3  UNL     1       1.080  -4.289   0.402  1.00  0.00     0.081 A 
HETATM   25  C2  UNL     1      -0.957  -5.254   0.399  1.00  0.00     0.099 A 
HETATM   26  N1  UNL     1       0.381  -5.438   0.707  1.00  0.00    -0.244 NA
HETATM   27  C8  UNL     1       2.452  -3.957   0.521  1.00  0.00     0.019 A 
HETATM   28  C7  UNL     1       2.839  -2.700   0.110  1.00  0.00    -0.002 A 
ENDBRANCH   1  20
TORSDOF 3
