REMARK  2 active torsions:
REMARK  status: ('A' for Active; 'I' for Inactive)
REMARK    1  A    between atoms: C9_11  and  C13_17 
REMARK    2  A    between atoms: C10_12  and  O4_15 
ROOT
HETATM    1  C1  UNL     1      -5.407  -0.009   0.144  1.00  0.00     0.102 A 
HETATM    2  C2  UNL     1      -5.500   1.389   0.046  1.00  0.00     0.025 A 
HETATM    3  C3  UNL     1      -4.313   2.094  -0.097  1.00  0.00     0.007 A 
HETATM    4  C4  UNL     1      -3.062   1.424  -0.141  1.00  0.00     0.064 A 
HETATM    5  C5  UNL     1      -2.951   0.041  -0.040  1.00  0.00     0.105 A 
HETATM    6  C6  UNL     1      -4.169  -0.651   0.098  1.00  0.00     0.048 A 
HETATM    7  C7  UNL     1      -4.448  -2.062   0.203  1.00  0.00     0.031 A 
HETATM    8  C8  UNL     1      -5.798  -2.160   0.303  1.00  0.00     0.123 A 
HETATM    9  O1  UNL     1      -6.411  -0.930   0.273  1.00  0.00    -0.305 OA
HETATM   10  O2  UNL     1      -1.773  -0.629  -0.122  1.00  0.00    -0.305 OA
HETATM   11  C9  UNL     1      -0.614   0.069   0.071  1.00  0.00     0.125 C 
HETATM   12  C10 UNL     1      -0.535   1.419  -0.107  1.00  0.00     0.156 C 
HETATM   13  C11 UNL     1      -1.801   2.187  -0.289  1.00  0.00     0.222 C 
HETATM   14  O3  UNL     1      -1.800   3.395  -0.515  1.00  0.00    -0.284 OA
ENDROOT
BRANCH  11  15
HETATM   15  C13 UNL     1       0.652  -0.707   0.347  1.00  0.00     0.027 C 
HETATM   16  C14 UNL     1       0.602  -1.984  -0.211  1.00  0.00     0.002 C 
HETATM   17  C15 UNL     1       1.758  -2.760  -0.282  1.00  0.00     0.002 C 
HETATM   18  C16 UNL     1       2.867  -1.998  -0.009  1.00  0.00     0.027 C 
HETATM   19  C17 UNL     1       2.737  -0.709   0.555  1.00  0.00     0.131 C 
HETATM   20  C18 UNL     1       1.668  -0.161   1.267  1.00  0.00     0.029 C 
HETATM   21  O5  UNL     1       3.926  -0.076   0.779  1.00  0.00    -0.190 OA
ENDBRANCH  11  15
BRANCH  12  22
HETATM   22  O4  UNL     1       0.607   2.155   0.081  1.00  0.00    -0.323 OA
HETATM   23  C12 UNL     1       1.371   2.325  -1.091  1.00  0.00     0.182 C 
ENDBRANCH  12  22
TORSDOF 2
