REMARK  0 active torsions:
REMARK  status: ('A' for Active; 'I' for Inactive)
ROOT
HETATM    1  C1  UNL     1      -5.335   0.132  -0.559  1.00  0.00     0.152 C 
HETATM    2  C2  UNL     1      -4.471  -1.126  -0.611  1.00  0.00     0.033 C 
HETATM    3  C3  UNL     1      -3.202  -0.700   0.141  1.00  0.00     0.003 C 
HETATM    4  C4  UNL     1      -3.008   0.796  -0.221  1.00  0.00     0.007 C 
HETATM    5  C5  UNL     1      -4.340   1.258  -0.860  1.00  0.00     0.031 C 
HETATM    6  C6  UNL     1      -4.868   2.645  -0.476  1.00  0.00     0.003 C 
HETATM    7  C7  UNL     1      -1.823   0.741  -1.201  1.00  0.00     0.004 C 
HETATM    8  C8  UNL     1      -0.910  -0.272  -0.486  1.00  0.00     0.018 C 
HETATM    9  C9  UNL     1      -1.873  -1.440  -0.149  1.00  0.00     0.004 C 
HETATM   10  C10 UNL     1      -1.932  -2.423  -1.338  1.00  0.00     0.000 C 
HETATM   11  C11 UNL     1      -1.436  -2.263   1.081  1.00  0.00     0.000 C 
HETATM   12  C12 UNL     1      -0.377   0.396   0.763  1.00  0.00    -0.049 C 
HETATM   13  C13 UNL     1      -1.158   1.242   1.454  1.00  0.00    -0.035 C 
HETATM   14  C14 UNL     1      -2.551   1.610   1.007  1.00  0.00     0.025 C 
HETATM   15  C15 UNL     1       1.033   0.068   1.184  1.00  0.00     0.026 C 
HETATM   16  O1  UNL     1      -5.876   0.277   0.732  1.00  0.00    -0.224 OA
ENDROOT
TORSDOF 0
