REMARK  10 active torsions:
REMARK  status: ('A' for Active; 'I' for Inactive)
REMARK    1  A    between atoms: C1_1  and  O9_35 
REMARK    2  A    between atoms: C5_5  and  C23_29 
REMARK    3  A    between atoms: C7_8  and  O5_20 
REMARK    4  A    between atoms: C10_11  and  O2_12 
REMARK    5  A    between atoms: O2_12  and  C11_13 
REMARK    6  A    between atoms: O5_20  and  C16_21 
REMARK    7  A    between atoms: C16_21  and  C17_22 
REMARK    8  A    between atoms: C23_29  and  O7_30 
REMARK    9  A    between atoms: O7_30  and  C24_31 
REMARK   10  A    between atoms: O9_35  and  C27_36 
ROOT
HETATM    1  C1  UNL     1      -4.764  -0.590   2.290  1.00  0.00     0.155 C 
HETATM    2  C2  UNL     1      -5.665  -1.340   1.321  1.00  0.00     0.035 C 
HETATM    3  C3  UNL     1      -4.850  -2.152   0.289  1.00  0.00     0.030 C 
HETATM    4  C4  UNL     1      -3.417  -1.593   0.037  1.00  0.00     0.125 C 
HETATM    5  C5  UNL     1      -3.372  -0.017   0.109  1.00  0.00     0.109 C 
HETATM    6  C6  UNL     1      -3.802   0.359   1.566  1.00  0.00     0.186 C 
HETATM    7  O1  UNL     1      -4.306   1.671   1.609  1.00  0.00    -0.221 OA
HETATM    8  C7  UNL     1      -1.949   0.547  -0.275  1.00  0.00     0.132 C 
HETATM    9  C8  UNL     1      -1.005  -0.424  -1.012  1.00  0.00     0.035 C 
HETATM   10  C9  UNL     1      -1.308  -1.919  -0.834  1.00  0.00     0.058 C 
HETATM   11  C10 UNL     1      -2.762  -2.113  -1.251  1.00  0.00     0.151 C 
HETATM   12  C13 UNL     1      -1.332  -2.424   0.612  1.00  0.00     0.095 C 
HETATM   13  C14 UNL     1      -1.193  -3.955   0.740  1.00  0.00     0.030 C 
HETATM   14  O4  UNL     1      -2.588  -2.053   1.084  1.00  0.00    -0.361 OA
HETATM   15  C15 UNL     1      -0.227  -1.857   1.512  1.00  0.00     0.030 C 
HETATM   16  C26 UNL     1      -5.743  -2.425  -0.942  1.00  0.00     0.003 C 
ENDROOT
BRANCH   8  17
HETATM   17  O5  UNL     1      -1.268   1.093   0.819  1.00  0.00    -0.301 OA
BRANCH  17  18
HETATM   18  C16 UNL     1      -1.080   2.431   1.020  1.00  0.00     0.296 C 
HETATM   19  O6  UNL     1      -0.682   2.789   2.126  1.00  0.00    -0.259 OA
BRANCH  18  20
HETATM   20  C17 UNL     1      -1.241   3.544   0.026  1.00  0.00     0.063 A 
HETATM   21  C18 UNL     1      -1.766   4.768   0.460  1.00  0.00     0.005 A 
HETATM   22  C19 UNL     1      -1.887   5.838  -0.430  1.00  0.00     0.000 A 
HETATM   23  C20 UNL     1      -1.480   5.692  -1.757  1.00  0.00     0.000 A 
HETATM   24  C21 UNL     1      -0.944   4.477  -2.190  1.00  0.00     0.000 A 
HETATM   25  C22 UNL     1      -0.808   3.412  -1.300  1.00  0.00     0.005 A 
ENDBRANCH  18  20
ENDBRANCH  17  18
ENDBRANCH   8  17
BRANCH   5  26
HETATM   26  C23 UNL     1      -4.367   0.598  -0.929  1.00  0.00     0.159 C 
BRANCH  26  27
HETATM   27  O7  UNL     1      -4.334   2.006  -0.991  1.00  0.00    -0.301 OA
BRANCH  27  28
HETATM   28  C24 UNL     1      -5.123   2.595  -1.929  1.00  0.00     0.272 C 
HETATM   29  C25 UNL     1      -5.032   4.103  -1.820  1.00  0.00     0.106 C 
HETATM   30  O8  UNL     1      -5.805   1.999  -2.732  1.00  0.00    -0.264 OA
ENDBRANCH  27  28
ENDBRANCH  26  27
ENDBRANCH   5  26
BRANCH  11  31
HETATM   31  O2  UNL     1      -2.993  -3.470  -1.498  1.00  0.00    -0.302 OA
BRANCH  31  32
HETATM   32  C11 UNL     1      -3.244  -4.003  -2.728  1.00  0.00     0.272 C 
HETATM   33  O3  UNL     1      -3.458  -5.188  -2.877  1.00  0.00    -0.264 OA
HETATM   34  C12 UNL     1      -3.230  -3.056  -3.914  1.00  0.00     0.106 C 
ENDBRANCH  31  32
ENDBRANCH  11  31
BRANCH   1  35
HETATM   35  O9  UNL     1      -5.529   0.149   3.201  1.00  0.00    -0.302 OA
BRANCH  35  36
HETATM   36  C27 UNL     1      -5.814  -0.243   4.476  1.00  0.00     0.272 C 
HETATM   37  O10 UNL     1      -6.503   0.435   5.208  1.00  0.00    -0.264 OA
HETATM   38  C28 UNL     1      -5.215  -1.553   4.954  1.00  0.00     0.106 C 
ENDBRANCH  35  36
ENDBRANCH   1  35
TORSDOF 10
