REMARK  0 active torsions:
REMARK  status: ('A' for Active; 'I' for Inactive)
ROOT
HETATM    1  C1  UNL     1      -6.279  -0.027  -0.064  1.00  0.00     0.065 C 
HETATM    2  C2  UNL     1      -6.515  -1.420   0.477  1.00  0.00     0.150 C 
HETATM    3  C3  UNL     1      -5.329  -2.365   0.345  1.00  0.00     0.058 C 
HETATM    4  C4  UNL     1      -4.051  -1.766   1.017  1.00  0.00     0.014 C 
HETATM    5  C5  UNL     1      -3.785  -0.333   0.479  1.00  0.00     0.005 C 
HETATM    6  C6  UNL     1      -5.034   0.570   0.600  1.00  0.00     0.008 C 
HETATM    7  C7  UNL     1      -2.431   0.380   0.872  1.00  0.00     0.020 C 
HETATM    8  C8  UNL     1      -1.268  -0.595   1.293  1.00  0.00    -0.011 C 
HETATM    9  C9  UNL     1      -1.506  -2.093   1.072  1.00  0.00     0.165 C 
HETATM   10  C10 UNL     1      -2.841  -2.613   0.585  1.00  0.00     0.069 C 
HETATM   11  O1  UNL     1      -0.677  -2.938   1.329  1.00  0.00    -0.292 OA
HETATM   12  C11 UNL     1       0.213  -0.057   1.105  1.00  0.00     0.020 C 
HETATM   13  C12 UNL     1       0.401   0.482  -0.361  1.00  0.00     0.032 C 
HETATM   14  C13 UNL     1      -0.573   1.675  -0.509  1.00  0.00     0.153 C 
HETATM   15  C14 UNL     1      -2.038   1.280  -0.342  1.00  0.00     0.037 C 
HETATM   16  O2  UNL     1      -0.439   2.277  -1.781  1.00  0.00    -0.223 OA
HETATM   17  C15 UNL     1       1.870   0.928  -0.752  1.00  0.00     0.003 C 
HETATM   18  C16 UNL     1       3.028   0.651   0.251  1.00  0.00     0.000 C 
HETATM   19  C17 UNL     1       2.773  -0.576   1.167  1.00  0.00     0.000 C 
HETATM   20  C18 UNL     1       1.333  -1.111   1.280  1.00  0.00     0.004 C 
HETATM   21  C19 UNL     1       4.378   0.392  -0.485  1.00  0.00     0.000 C 
HETATM   22  C20 UNL     1       4.641   1.345  -1.658  1.00  0.00     0.000 C 
HETATM   23  C21 UNL     1       3.575   1.179  -2.756  1.00  0.00     0.000 C 
HETATM   24  C22 UNL     1       2.301   0.514  -2.183  1.00  0.00     0.000 C 
HETATM   25  C23 UNL     1       3.238   2.553  -3.376  1.00  0.00     0.000 C 
HETATM   26  C24 UNL     1       4.133   0.278  -3.884  1.00  0.00     0.000 C 
HETATM   27  C25 UNL     1       3.290   1.936   1.095  1.00  0.00     0.000 C 
HETATM   28  C26 UNL     1      -0.091  -0.615  -1.360  1.00  0.00     0.003 C 
HETATM   29  C27 UNL     1       0.475   0.929   2.287  1.00  0.00     0.004 C 
HETATM   30  C28 UNL     1      -2.711   1.356   2.053  1.00  0.00     0.004 C 
HETATM   31  C29 UNL     1      -4.215  -1.807   2.550  1.00  0.00     0.001 C 
HETATM   32  C30 UNL     1      -5.720  -3.794   0.769  1.00  0.00     0.008 C 
HETATM   33  O3  UNL     1      -7.585  -1.751   0.934  1.00  0.00    -0.296 OA
ENDROOT
TORSDOF 0
