REMARK  2 active torsions:
REMARK  status: ('A' for Active; 'I' for Inactive)
REMARK    1  A    between atoms: C3_3  and  C17_21 
REMARK    2  A    between atoms: C13_15  and  O3_17 
ROOT
HETATM    1  C1  UNL     1      -3.242  -1.410   1.804  1.00  0.00     0.001 C 
HETATM    2  C2  UNL     1      -4.404  -1.059   0.878  1.00  0.00     0.006 C 
HETATM    3  C3  UNL     1      -4.314   0.419   0.426  1.00  0.00     0.048 C 
HETATM    4  C4  UNL     1      -2.860   0.820   0.104  1.00  0.00    -0.011 C 
HETATM    5  C5  UNL     1      -1.839  -0.300  -0.105  1.00  0.00     0.036 C 
HETATM    6  C6  UNL     1      -1.905  -1.322   1.058  1.00  0.00     0.008 C 
HETATM    7  C7  UNL     1      -0.391   0.184  -0.211  1.00  0.00    -0.014 A 
HETATM    8  C8  UNL     1      -0.075   1.532  -0.393  1.00  0.00     0.040 A 
HETATM    9  C9  UNL     1      -1.152   2.539  -0.418  1.00  0.00     0.220 C 
HETATM   10  C10 UNL     1      -2.532   2.118  -0.082  1.00  0.00     0.162 C 
HETATM   11  O1  UNL     1      -3.387   3.174  -0.003  1.00  0.00    -0.187 OA
HETATM   12  O2  UNL     1      -0.959   3.726  -0.664  1.00  0.00    -0.284 OA
HETATM   13  C11 UNL     1       1.253   1.941  -0.560  1.00  0.00     0.032 A 
HETATM   14  C12 UNL     1       2.301   1.019  -0.558  1.00  0.00     0.153 A 
HETATM   15  C13 UNL     1       2.026  -0.345  -0.376  1.00  0.00     0.119 A 
HETATM   16  C14 UNL     1       0.680  -0.721  -0.237  1.00  0.00     0.022 A 
HETATM   17  O4  UNL     1       3.587   1.422  -0.741  1.00  0.00    -0.188 OA
HETATM   18  C16 UNL     1      -2.103  -0.955  -1.483  1.00  0.00     0.009 C 
HETATM   19  C18 UNL     1      -4.889   1.278   1.583  1.00  0.00     0.007 C 
ENDROOT
BRANCH   3  20
HETATM   20  C17 UNL     1      -5.190   0.622  -0.823  1.00  0.00     0.186 C 
HETATM   21  O5  UNL     1      -6.526   0.234  -0.568  1.00  0.00    -0.220 OA
ENDBRANCH   3  20
BRANCH  15  22
HETATM   22  O3  UNL     1       3.084  -1.217  -0.442  1.00  0.00    -0.326 OA
HETATM   23  C15 UNL     1       2.820  -2.585  -0.643  1.00  0.00     0.181 C 
ENDBRANCH  15  22
TORSDOF 2
