REMARK  0 active torsions:
REMARK  status: ('A' for Active; 'I' for Inactive)
ROOT
HETATM    1  C1  UNL     1      -3.831  -1.683   1.798  1.00  0.00     0.001 C 
HETATM    2  C2  UNL     1      -5.019  -1.405   0.880  1.00  0.00     0.004 C 
HETATM    3  C3  UNL     1      -4.991   0.064   0.393  1.00  0.00     0.018 C 
HETATM    4  C4  UNL     1      -3.561   0.516   0.043  1.00  0.00    -0.013 C 
HETATM    5  C5  UNL     1      -2.502  -0.568  -0.159  1.00  0.00     0.036 C 
HETATM    6  C6  UNL     1      -2.511  -1.568   1.025  1.00  0.00     0.008 C 
HETATM    7  C7  UNL     1      -1.078  -0.032  -0.297  1.00  0.00    -0.014 A 
HETATM    8  C8  UNL     1      -0.812   1.323  -0.514  1.00  0.00     0.040 A 
HETATM    9  C9  UNL     1      -1.929   2.287  -0.542  1.00  0.00     0.220 C 
HETATM   10  C10 UNL     1      -3.286   1.822  -0.174  1.00  0.00     0.162 C 
HETATM   11  O1  UNL     1      -4.180   2.845  -0.100  1.00  0.00    -0.187 OA
HETATM   12  O2  UNL     1      -1.787   3.477  -0.815  1.00  0.00    -0.284 OA
HETATM   13  C11 UNL     1       0.497   1.787  -0.704  1.00  0.00     0.033 A 
HETATM   14  C12 UNL     1       1.581   0.908  -0.700  1.00  0.00     0.156 A 
HETATM   15  C13 UNL     1       1.339  -0.454  -0.502  1.00  0.00     0.156 A 
HETATM   16  C14 UNL     1       0.026  -0.895  -0.313  1.00  0.00     0.026 A 
HETATM   17  O3  UNL     1       2.376  -1.331  -0.519  1.00  0.00    -0.188 OA
HETATM   18  O4  UNL     1       2.856   1.335  -0.897  1.00  0.00    -0.188 OA
HETATM   19  C15 UNL     1      -2.760  -1.262  -1.520  1.00  0.00     0.009 C 
HETATM   20  C16 UNL     1      -5.905   0.186  -0.847  1.00  0.00     0.004 C 
HETATM   21  C17 UNL     1      -5.609   0.923   1.526  1.00  0.00     0.004 C 
ENDROOT
TORSDOF 0
