REMARK  1 active torsions:
REMARK  status: ('A' for Active; 'I' for Inactive)
REMARK    1  A    between atoms: C16_16  and  C25_26 
ROOT
HETATM    1  C1  UNL     1      -6.454   0.065  -0.119  1.00  0.00     0.065 C 
HETATM    2  C2  UNL     1      -6.694  -1.359   0.331  1.00  0.00     0.150 C 
HETATM    3  C3  UNL     1      -5.538  -2.316   0.075  1.00  0.00     0.058 C 
HETATM    4  C4  UNL     1      -4.215  -1.786   0.719  1.00  0.00     0.006 C 
HETATM    5  C5  UNL     1      -3.939  -0.330   0.248  1.00  0.00     0.001 C 
HETATM    6  C6  UNL     1      -5.154   0.592   0.497  1.00  0.00     0.008 C 
HETATM    7  C7  UNL     1      -2.537   0.304   0.602  1.00  0.00     0.000 C 
HETATM    8  C8  UNL     1      -1.424  -0.723   1.024  1.00  0.00     0.000 C 
HETATM    9  C9  UNL     1      -1.657  -2.210   0.652  1.00  0.00     0.000 C 
HETATM   10  C10 UNL     1      -3.047  -2.622   0.165  1.00  0.00     0.000 C 
HETATM   11  C11 UNL     1       0.085  -0.237   0.953  1.00  0.00     0.003 C 
HETATM   12  C12 UNL     1       0.411   0.449  -0.414  1.00  0.00     0.000 C 
HETATM   13  C13 UNL     1      -0.616   1.601  -0.593  1.00  0.00     0.000 C 
HETATM   14  C14 UNL     1      -2.072   1.120  -0.635  1.00  0.00     0.000 C 
HETATM   15  C15 UNL     1       1.877   1.027  -0.502  1.00  0.00     0.005 C 
HETATM   16  C16 UNL     1       3.021   0.322   0.306  1.00  0.00     0.059 C 
HETATM   17  C17 UNL     1       2.592  -1.004   1.018  1.00  0.00     0.154 C 
HETATM   18  C18 UNL     1       1.109  -1.394   1.067  1.00  0.00     0.033 C 
HETATM   19  O1  UNL     1       3.294  -2.126   0.523  1.00  0.00    -0.223 OA
HETATM   20  C19 UNL     1       4.226   0.046  -0.643  1.00  0.00     0.005 C 
HETATM   21  C20 UNL     1       4.749   1.243  -1.452  1.00  0.00     0.000 C 
HETATM   22  C21 UNL     1       3.648   1.936  -2.280  1.00  0.00     0.000 C 
HETATM   23  C22 UNL     1       2.283   1.284  -1.982  1.00  0.00     0.000 C 
HETATM   24  C23 UNL     1       3.592   3.457  -2.029  1.00  0.00     0.000 C 
HETATM   25  C24 UNL     1       3.960   1.750  -3.788  1.00  0.00     0.000 C 
HETATM   26  C26 UNL     1       0.178  -0.528  -1.603  1.00  0.00     0.000 C 
HETATM   27  C27 UNL     1       0.370   0.658   2.199  1.00  0.00     0.000 C 
HETATM   28  C28 UNL     1      -2.732   1.347   1.743  1.00  0.00     0.000 C 
HETATM   29  C29 UNL     1      -4.323  -1.912   2.250  1.00  0.00     0.000 C 
HETATM   30  C30 UNL     1      -5.941  -3.759   0.433  1.00  0.00     0.008 C 
HETATM   31  O3  UNL     1      -7.751  -1.702   0.811  1.00  0.00    -0.296 OA
ENDROOT
BRANCH  16  32
HETATM   32  C25 UNL     1       3.583   1.227   1.449  1.00  0.00     0.185 C 
HETATM   33  O2  UNL     1       3.860   2.560   1.079  1.00  0.00    -0.221 OA
ENDBRANCH  16  32
TORSDOF 1
