REMARK  4 active torsions:
REMARK  status: ('A' for Active; 'I' for Inactive)
REMARK    1  A    between atoms: C1_1  and  C21_28 
REMARK    2  A    between atoms: C5_5  and  O2_7 
REMARK    3  A    between atoms: O2_7  and  C6_8 
REMARK    4  A    between atoms: C6_8  and  C7_9 
ROOT
HETATM    1  C6  UNL     1       0.632  -0.004  -0.923  1.00  0.00     0.096 C 
HETATM    2  C19 UNL     1       0.104   0.751  -2.152  1.00  0.00     0.030 C 
HETATM    3  C20 UNL     1       1.993  -0.636  -1.264  1.00  0.00     0.030 C 
ENDROOT
BRANCH   1   4
HETATM    4  O2  UNL     1       0.745   0.861   0.181  1.00  0.00    -0.334 OA
BRANCH   4   5
HETATM    5  C5  UNL     1       1.675   1.920   0.118  1.00  0.00     0.270 C 
HETATM    6  C4  UNL     1       1.253   2.967   1.127  1.00  0.00     0.241 C 
HETATM    7  C3  UNL     1       2.278   4.080   1.149  1.00  0.00     0.220 C 
HETATM    8  O5  UNL     1       0.004   3.497   0.764  1.00  0.00    -0.215 OA
HETATM    9  C2  UNL     1       3.646   3.491   1.432  1.00  0.00     0.215 C 
HETATM   10  O6  UNL     1       1.955   5.007   2.153  1.00  0.00    -0.218 OA
HETATM   11  C1  UNL     1       3.944   2.372   0.444  1.00  0.00     0.184 C 
HETATM   12  O7  UNL     1       4.593   4.525   1.322  1.00  0.00    -0.218 OA
HETATM   13  O1  UNL     1       2.928   1.407   0.517  1.00  0.00    -0.326 OA
BRANCH  11  14
HETATM   14  C21 UNL     1       5.275   1.694   0.733  1.00  0.00     0.214 C 
HETATM   15  O8  UNL     1       5.559   0.759  -0.290  1.00  0.00    -0.218 OA
ENDBRANCH  11  14
ENDBRANCH   4   5
ENDBRANCH   1   4
BRANCH   1  16
HETATM   16  C7  UNL     1      -0.380  -1.097  -0.465  1.00  0.00     0.025 C 
HETATM   17  C8  UNL     1      -1.708  -0.510   0.076  1.00  0.00     0.005 C 
HETATM   18  C9  UNL     1      -2.756  -1.616   0.254  1.00  0.00     0.030 C 
HETATM   19  C10 UNL     1      -4.138  -1.230   0.785  1.00  0.00     0.093 C 
HETATM   20  C14 UNL     1      -3.194  -2.198  -1.100  1.00  0.00     0.058 C 
HETATM   21  C11 UNL     1      -4.842  -2.522   1.243  1.00  0.00     0.030 C 
HETATM   22  O3  UNL     1      -4.845  -0.695  -0.291  1.00  0.00    -0.359 OA
HETATM   23  C18 UNL     1      -4.117  -0.212   1.925  1.00  0.00     0.030 C 
HETATM   24  C12 UNL     1      -5.008  -3.533   0.096  1.00  0.00     0.035 C 
HETATM   25  C13 UNL     1      -3.780  -3.594  -0.816  1.00  0.00     0.154 C 
HETATM   26  O4  UNL     1      -4.150  -4.233  -2.016  1.00  0.00    -0.223 OA
HETATM   27  C17 UNL     1      -4.306  -1.212  -1.483  1.00  0.00     0.144 C 
HETATM   28  C15 UNL     1      -2.036  -2.193  -2.118  1.00  0.00     0.005 C 
HETATM   29  C16 UNL     1      -0.662  -2.268  -1.439  1.00  0.00     0.003 C 
ENDBRANCH   1  16
TORSDOF 4
