REMARK  6 active torsions:
REMARK  status: ('A' for Active; 'I' for Inactive)
REMARK    1  A    between atoms: C1_1  and  C18_25 
REMARK    2  A    between atoms: C5_5  and  O2_7 
REMARK    3  A    between atoms: O2_7  and  C6_8 
REMARK    4  A    between atoms: C6_8  and  C8_10 
REMARK    5  A    between atoms: C8_10  and  C9_11 
REMARK    6  A    between atoms: C9_11  and  C10_12 
ROOT
HETATM    1  C6  UNL     1      -0.211  -0.262   1.302  1.00  0.00     0.118 C 
HETATM    2  C7  UNL     1       0.700  -0.177   2.534  1.00  0.00     0.032 C 
ENDROOT
BRANCH   1   3
HETATM    3  O2  UNL     1       0.615  -0.596   0.216  1.00  0.00    -0.332 OA
BRANCH   3   4
HETATM    4  C5  UNL     1      -0.024  -1.306  -0.820  1.00  0.00     0.270 C 
HETATM    5  C4  UNL     1       0.793  -1.147  -2.080  1.00  0.00     0.241 C 
HETATM    6  C3  UNL     1       0.162  -1.979  -3.173  1.00  0.00     0.220 C 
HETATM    7  O5  UNL     1       0.787   0.203  -2.471  1.00  0.00    -0.215 OA
HETATM    8  C2  UNL     1       0.084  -3.414  -2.694  1.00  0.00     0.215 C 
HETATM    9  O6  UNL     1       0.945  -1.911  -4.336  1.00  0.00    -0.218 OA
HETATM   10  C1  UNL     1      -0.662  -3.490  -1.365  1.00  0.00     0.184 C 
HETATM   11  O7  UNL     1      -0.576  -4.160  -3.687  1.00  0.00    -0.218 OA
HETATM   12  O1  UNL     1      -0.035  -2.660  -0.420  1.00  0.00    -0.326 OA
BRANCH  10  13
HETATM   13  C18 UNL     1      -0.686  -4.911  -0.820  1.00  0.00     0.214 C 
HETATM   14  O8  UNL     1      -1.479  -4.963   0.349  1.00  0.00    -0.218 OA
ENDBRANCH  10  13
ENDBRANCH   3   4
ENDBRANCH   1   3
BRANCH   1  15
HETATM   15  C8  UNL     1      -0.920   1.086   1.069  1.00  0.00     0.033 C 
BRANCH  15  16
HETATM   16  C9  UNL     1      -2.394   0.981   0.640  1.00  0.00     0.037 C 
BRANCH  16  17
HETATM   17  C10 UNL     1      -3.028   2.309   0.216  1.00  0.00     0.147 A 
HETATM   18  O3  UNL     1      -4.252   2.030  -0.467  1.00  0.00    -0.296 OA
HETATM   19  C11 UNL     1      -5.263   2.675   0.189  1.00  0.00     0.296 A 
HETATM   20  C12 UNL     1      -4.774   3.445   1.340  1.00  0.00     0.061 A 
HETATM   21  O4  UNL     1      -6.439   2.623  -0.154  1.00  0.00    -0.259 OA
HETATM   22  C13 UNL     1      -3.400   3.233   1.353  1.00  0.00     0.010 A 
HETATM   23  C17 UNL     1      -5.460   4.249   2.246  1.00  0.00     0.005 A 
HETATM   24  C14 UNL     1      -2.628   3.887   2.308  1.00  0.00    -0.002 A 
HETATM   25  C15 UNL     1      -3.284   4.698   3.245  1.00  0.00    -0.000 A 
HETATM   26  C16 UNL     1      -4.674   4.873   3.222  1.00  0.00     0.000 A 
ENDBRANCH  16  17
ENDBRANCH  15  16
ENDBRANCH   1  15
TORSDOF 6
