REMARK  3 active torsions:
REMARK  status: ('A' for Active; 'I' for Inactive)
REMARK    1  A    between atoms: C1_1  and  O6_24 
REMARK    2  A    between atoms: C6_6  and  C7_7 
REMARK    3  A    between atoms: C7_7  and  C8_8 
ROOT
HETATM    1  C1  UNL     1      -4.679   1.781   0.297  1.00  0.00     0.118 A 
HETATM    2  C2  UNL     1      -4.833   2.047   1.671  1.00  0.00     0.180 A 
HETATM    3  C3  UNL     1      -4.516   1.078   2.627  1.00  0.00     0.181 A 
HETATM    4  C4  UNL     1      -4.112  -0.202   2.251  1.00  0.00     0.130 A 
HETATM    5  C5  UNL     1      -3.977  -0.488   0.886  1.00  0.00     0.062 A 
HETATM    6  C6  UNL     1      -4.213   0.502  -0.092  1.00  0.00     0.012 A 
HETATM    7  C12 UNL     1      -3.643  -1.908   0.555  1.00  0.00     0.201 C 
HETATM    8  C13 UNL     1      -3.943  -2.905   1.624  1.00  0.00     0.087 A 
HETATM    9  C14 UNL     1      -4.055  -2.411   2.933  1.00  0.00     0.105 A 
HETATM   10  O1  UNL     1      -3.825  -1.104   3.232  1.00  0.00    -0.305 OA
HETATM   11  C15 UNL     1      -4.351  -3.314   3.959  1.00  0.00     0.025 A 
HETATM   12  C16 UNL     1      -4.551  -4.667   3.693  1.00  0.00     0.004 A 
HETATM   13  C17 UNL     1      -4.450  -5.128   2.381  1.00  0.00     0.028 A 
HETATM   14  C18 UNL     1      -4.149  -4.267   1.321  1.00  0.00     0.136 A 
HETATM   15  O2  UNL     1      -4.086  -4.782   0.062  1.00  0.00    -0.190 OA
HETATM   16  O3  UNL     1      -3.211  -2.290  -0.525  1.00  0.00    -0.286 OA
HETATM   17  O4  UNL     1      -4.644   1.363   3.950  1.00  0.00    -0.186 OA
HETATM   18  O5  UNL     1      -5.248   3.249   2.154  1.00  0.00    -0.186 OA
ENDROOT
BRANCH   6  19
HETATM   19  C7  UNL     1      -4.033   0.190  -1.574  1.00  0.00     0.054 C 
BRANCH  19  20
HETATM   20  C8  UNL     1      -3.684   1.349  -2.476  1.00  0.00    -0.030 C 
HETATM   21  C9  UNL     1      -4.304   1.728  -3.608  1.00  0.00    -0.048 C 
HETATM   22  C10 UNL     1      -3.826   2.933  -4.386  1.00  0.00     0.026 C 
HETATM   23  C11 UNL     1      -5.505   1.042  -4.216  1.00  0.00     0.026 C 
ENDBRANCH  19  20
ENDBRANCH   6  19
BRANCH   1  24
HETATM   24  O6  UNL     1      -5.028   2.666  -0.697  1.00  0.00    -0.326 OA
HETATM   25  C19 UNL     1      -5.864   3.767  -0.441  1.00  0.00     0.181 C 
ENDBRANCH   1  24
TORSDOF 3
