REMARK  8 active torsions:
REMARK  status: ('A' for Active; 'I' for Inactive)
REMARK    1  A    between atoms: C3_3  and  C42_55 
REMARK    2  A    between atoms: C16_17  and  C25_26 
REMARK    3  A    between atoms: C25_26  and  O3_28 
REMARK    4  A    between atoms: O3_28  and  C26_29 
REMARK    5  A    between atoms: C27_31  and  C31_38 
REMARK    6  A    between atoms: C31_38  and  O8_39 
REMARK    7  A    between atoms: O8_39  and  C32_40 
REMARK    8  A    between atoms: C33_42  and  C37_49 
ROOT
HETATM    1  C1  UNL     1      -4.854   3.251  -1.734  1.00  0.00     0.182 C 
HETATM    2  C2  UNL     1      -5.695   1.990  -1.687  1.00  0.00     0.185 C 
HETATM    3  C3  UNL     1      -4.967   0.723  -2.215  1.00  0.00     0.064 C 
HETATM    4  C4  UNL     1      -3.408   0.866  -2.114  1.00  0.00     0.035 C 
HETATM    5  C5  UNL     1      -2.832   1.742  -0.962  1.00  0.00     0.005 C 
HETATM    6  C6  UNL     1      -3.521   3.145  -0.994  1.00  0.00     0.036 C 
HETATM    7  C7  UNL     1      -1.285   1.963  -1.187  1.00  0.00     0.005 C 
HETATM    8  C8  UNL     1      -0.367   0.765  -1.574  1.00  0.00     0.006 C 
HETATM    9  C9  UNL     1      -1.110  -0.096  -2.624  1.00  0.00     0.033 C 
HETATM   10  C10 UNL     1      -2.578  -0.412  -2.334  1.00  0.00     0.152 C 
HETATM   11  O1  UNL     1      -2.679  -1.343  -1.287  1.00  0.00    -0.224 OA
HETATM   12  C11 UNL     1       1.035   1.302  -2.132  1.00  0.00     0.015 C 
HETATM   13  C12 UNL     1       1.629   2.355  -1.186  1.00  0.00    -0.049 C 
HETATM   14  C13 UNL     1       0.859   3.008  -0.297  1.00  0.00    -0.035 C 
HETATM   15  C14 UNL     1      -0.611   2.794  -0.083  1.00  0.00     0.025 C 
HETATM   16  C15 UNL     1       3.116   2.720  -1.248  1.00  0.00     0.027 C 
HETATM   17  C16 UNL     1       4.006   1.452  -1.293  1.00  0.00     0.082 C 
HETATM   18  C17 UNL     1       3.530   0.573  -2.465  1.00  0.00     0.010 C 
HETATM   19  C18 UNL     1       2.062   0.145  -2.293  1.00  0.00     0.004 C 
HETATM   20  C19 UNL     1       5.497   1.836  -1.426  1.00  0.00     0.010 C 
HETATM   21  C20 UNL     1       5.792   2.894  -2.493  1.00  0.00     0.001 C 
HETATM   22  C21 UNL     1       4.970   4.170  -2.245  1.00  0.00     0.000 C 
HETATM   23  C22 UNL     1       3.468   3.812  -2.293  1.00  0.00     0.004 C 
HETATM   24  C23 UNL     1       2.572   5.055  -2.130  1.00  0.00     0.000 C 
HETATM   25  C24 UNL     1       5.382   5.246  -3.266  1.00  0.00     0.000 C 
HETATM   26  C38 UNL     1       0.887   1.960  -3.530  1.00  0.00     0.004 C 
HETATM   27  C39 UNL     1      -0.104  -0.121  -0.331  1.00  0.00     0.000 C 
HETATM   28  C40 UNL     1      -3.149   1.142   0.432  1.00  0.00     0.000 C 
HETATM   29  C41 UNL     1      -5.508  -0.540  -1.507  1.00  0.00     0.005 C 
HETATM   30  O15 UNL     1      -6.202   1.851  -0.379  1.00  0.00    -0.221 OA
HETATM   31  O16 UNL     1      -4.628   3.620  -3.075  1.00  0.00    -0.221 OA
ENDROOT
BRANCH  17  32
HETATM   32  C25 UNL     1       3.952   0.607  -0.002  1.00  0.00     0.273 C 
HETATM   33  O2  UNL     1       4.697  -0.315   0.246  1.00  0.00    -0.264 OA
BRANCH  32  34
HETATM   34  O3  UNL     1       3.006   1.061   0.853  1.00  0.00    -0.273 OA
BRANCH  34  35
HETATM   35  C26 UNL     1       2.899   0.548   2.157  1.00  0.00     0.276 C 
HETATM   36  O4  UNL     1       2.392  -0.766   2.054  1.00  0.00    -0.326 OA
HETATM   37  C27 UNL     1       2.123  -1.345   3.306  1.00  0.00     0.180 C 
HETATM   38  C28 UNL     1       1.099  -0.510   4.067  1.00  0.00     0.215 C 
HETATM   39  C29 UNL     1       1.605   0.905   4.238  1.00  0.00     0.220 C 
HETATM   40  O7  UNL     1       0.868  -1.026   5.356  1.00  0.00    -0.218 OA
HETATM   41  C30 UNL     1       1.902   1.442   2.862  1.00  0.00     0.241 C 
HETATM   42  O6  UNL     1       0.608   1.685   4.848  1.00  0.00    -0.218 OA
HETATM   43  O5  UNL     1       2.407   2.749   2.959  1.00  0.00    -0.215 OA
BRANCH  37  44
HETATM   44  C31 UNL     1       1.623  -2.771   3.091  1.00  0.00     0.177 C 
BRANCH  44  45
HETATM   45  O8  UNL     1       2.709  -3.620   2.806  1.00  0.00    -0.326 OA
BRANCH  45  46
HETATM   46  C32 UNL     1       2.362  -4.989   2.835  1.00  0.00     0.270 C 
HETATM   47  O9  UNL     1       2.226  -5.325   4.200  1.00  0.00    -0.326 OA
HETATM   48  C33 UNL     1       1.847  -6.662   4.394  1.00  0.00     0.184 C 
HETATM   49  C34 UNL     1       2.931  -7.578   3.834  1.00  0.00     0.215 C 
HETATM   50  C35 UNL     1       3.178  -7.262   2.373  1.00  0.00     0.220 C 
HETATM   51  O12 UNL     1       2.566  -8.932   3.925  1.00  0.00    -0.218 OA
HETATM   52  C36 UNL     1       3.495  -5.788   2.236  1.00  0.00     0.241 C 
HETATM   53  O11 UNL     1       4.259  -8.027   1.905  1.00  0.00    -0.218 OA
HETATM   54  O10 UNL     1       3.632  -5.471   0.874  1.00  0.00    -0.215 OA
BRANCH  48  55
HETATM   55  C37 UNL     1       1.602  -6.861   5.885  1.00  0.00     0.214 C 
HETATM   56  O13 UNL     1       0.728  -7.951   6.101  1.00  0.00    -0.218 OA
ENDBRANCH  48  55
ENDBRANCH  45  46
ENDBRANCH  44  45
ENDBRANCH  37  44
ENDBRANCH  34  35
ENDBRANCH  32  34
ENDBRANCH  17  32
BRANCH   3  57
HETATM   57  C42 UNL     1      -5.417   0.607  -3.701  1.00  0.00     0.185 C 
HETATM   58  O14 UNL     1      -4.912  -0.534  -4.362  1.00  0.00    -0.221 OA
ENDBRANCH   3  57
TORSDOF 8
