REMARK  10 active torsions:
REMARK  status: ('A' for Active; 'I' for Inactive)
REMARK    1  A    between atoms: C4_4  and  C7_8 
REMARK    2  A    between atoms: C7_8  and  O2_9 
REMARK    3  A    between atoms: O2_9  and  C8_10 
REMARK    4  A    between atoms: C8_10  and  C9_11 
REMARK    5  A    between atoms: C12_14  and  O9_29 
REMARK    6  A    between atoms: C13_15  and  O4_17 
REMARK    7  A    between atoms: O4_17  and  C14_18 
REMARK    8  A    between atoms: C14_18  and  C15_19 
REMARK    9  A    between atoms: O9_29  and  C21_30 
REMARK   10  A    between atoms: C21_30  and  C22_31 
ROOT
HETATM    1  C9  UNL     1       1.447  -1.508   1.471  1.00  0.00     0.178 C 
HETATM    2  C10 UNL     1       0.855  -1.384   0.067  1.00  0.00     0.184 C 
HETATM    3  C11 UNL     1       0.275   0.001  -0.271  1.00  0.00     0.187 C 
HETATM    4  C12 UNL     1       1.287   1.043   0.186  1.00  0.00     0.211 C 
HETATM    5  C13 UNL     1       1.601   0.893   1.674  1.00  0.00     0.274 C 
HETATM    6  O3  UNL     1       1.225  -0.351   2.239  1.00  0.00    -0.326 OA
HETATM    7  O14 UNL     1       0.157   0.077  -1.671  1.00  0.00    -0.296 OA
HETATM    8  C28 UNL     1      -0.905  -0.608  -2.189  1.00  0.00     0.296 C 
HETATM    9  O15 UNL     1      -2.033  -0.427  -1.742  1.00  0.00    -0.259 OA
HETATM   10  C29 UNL     1      -0.625  -1.824  -3.011  1.00  0.00     0.067 A 
HETATM   11  C30 UNL     1      -1.358  -3.003  -2.798  1.00  0.00     0.035 A 
HETATM   12  C31 UNL     1      -0.962  -4.175  -3.461  1.00  0.00     0.158 A 
HETATM   13  C32 UNL     1       0.157  -4.171  -4.297  1.00  0.00     0.181 A 
HETATM   14  C33 UNL     1       0.914  -3.010  -4.474  1.00  0.00     0.158 A 
HETATM   15  C34 UNL     1       0.528  -1.850  -3.804  1.00  0.00     0.035 A 
HETATM   16  O16 UNL     1       2.028  -3.045  -5.248  1.00  0.00    -0.188 OA
HETATM   17  O17 UNL     1       0.540  -5.314  -4.922  1.00  0.00    -0.186 OA
HETATM   18  O18 UNL     1      -1.645  -5.338  -3.306  1.00  0.00    -0.188 OA
HETATM   19  C35 UNL     1      -2.541  -3.091  -1.878  1.00  0.00     0.035 A 
HETATM   20  C36 UNL     1      -2.510  -2.840  -0.487  1.00  0.00     0.067 A 
HETATM   21  C37 UNL     1      -3.705  -2.932   0.241  1.00  0.00     0.035 A 
HETATM   22  C38 UNL     1      -4.922  -3.249  -0.366  1.00  0.00     0.158 A 
HETATM   23  C39 UNL     1      -4.943  -3.470  -1.742  1.00  0.00     0.181 A 
HETATM   24  C40 UNL     1      -3.767  -3.381  -2.497  1.00  0.00     0.158 A 
HETATM   25  O19 UNL     1      -3.859  -3.624  -3.833  1.00  0.00    -0.188 OA
HETATM   26  O20 UNL     1      -6.114  -3.770  -2.361  1.00  0.00    -0.186 OA
HETATM   27  O21 UNL     1      -6.083  -3.331   0.336  1.00  0.00    -0.188 OA
HETATM   28  C41 UNL     1      -1.279  -2.451   0.272  1.00  0.00     0.296 C 
HETATM   29  O22 UNL     1      -0.027  -2.427  -0.274  1.00  0.00    -0.296 OA
HETATM   30  O23 UNL     1      -1.443  -1.919   1.367  1.00  0.00    -0.259 OA
ENDROOT
BRANCH   1  31
HETATM   31  C8  UNL     1       2.916  -1.937   1.542  1.00  0.00     0.183 C 
BRANCH  31  32
HETATM   32  O2  UNL     1       3.214  -2.994   0.663  1.00  0.00    -0.306 OA
BRANCH  32  33
HETATM   33  C7  UNL     1       4.470  -3.042   0.116  1.00  0.00     0.229 C 
HETATM   34  O24 UNL     1       4.779  -4.012  -0.727  1.00  0.00    -0.163 OA
BRANCH  33  35
HETATM   35  C4  UNL     1       5.573  -2.026   0.410  1.00  0.00     0.053 C 
HETATM   36  C3  UNL     1       6.627  -2.396   1.177  1.00  0.00     0.034 C 
HETATM   37  C2  UNL     1       7.633  -1.358   1.567  1.00  0.00     0.158 C 
HETATM   38  C1  UNL     1       7.075   0.045   1.600  1.00  0.00     0.181 C 
HETATM   39  O25 UNL     1       8.756  -1.692   2.249  1.00  0.00    -0.188 OA
HETATM   40  C6  UNL     1       6.083   0.382   0.538  1.00  0.00     0.158 C 
HETATM   41  O26 UNL     1       7.321   0.934   2.594  1.00  0.00    -0.186 OA
HETATM   42  C5  UNL     1       5.398  -0.632  -0.044  1.00  0.00     0.034 C 
HETATM   43  O1  UNL     1       5.769   1.685   0.342  1.00  0.00    -0.188 OA
ENDBRANCH  33  35
ENDBRANCH  32  33
ENDBRANCH  31  32
ENDBRANCH   1  31
BRANCH   5  44
HETATM   44  O4  UNL     1       2.977   1.103   1.893  1.00  0.00    -0.270 OA
BRANCH  44  45
HETATM   45  C14 UNL     1       3.501   1.980   2.801  1.00  0.00     0.298 C 
HETATM   46  O8  UNL     1       4.712   2.183   2.744  1.00  0.00    -0.259 OA
BRANCH  45  47
HETATM   47  C15 UNL     1       2.777   2.734   3.873  1.00  0.00     0.068 A 
HETATM   48  C16 UNL     1       1.698   2.185   4.576  1.00  0.00     0.035 A 
HETATM   49  C17 UNL     1       1.034   2.922   5.559  1.00  0.00     0.158 A 
HETATM   50  C18 UNL     1       1.475   4.215   5.862  1.00  0.00     0.181 A 
HETATM   51  O7  UNL     1      -0.020   2.409   6.246  1.00  0.00    -0.188 OA
HETATM   52  C19 UNL     1       2.573   4.768   5.197  1.00  0.00     0.158 A 
HETATM   53  O6  UNL     1       0.848   4.941   6.822  1.00  0.00    -0.186 OA
HETATM   54  C20 UNL     1       3.216   4.021   4.207  1.00  0.00     0.035 A 
HETATM   55  O5  UNL     1       2.997   6.016   5.521  1.00  0.00    -0.188 OA
ENDBRANCH  45  47
ENDBRANCH  44  45
ENDBRANCH   5  44
BRANCH   4  56
HETATM   56  O9  UNL     1       0.770   2.320  -0.051  1.00  0.00    -0.293 OA
BRANCH  56  57
HETATM   57  C21 UNL     1       1.276   3.344  -0.809  1.00  0.00     0.296 C 
HETATM   58  O13 UNL     1       0.560   4.348  -0.824  1.00  0.00    -0.259 OA
BRANCH  57  59
HETATM   59  C22 UNL     1       2.537   3.510  -1.610  1.00  0.00     0.067 A 
HETATM   60  C23 UNL     1       2.699   4.699  -2.345  1.00  0.00     0.035 A 
HETATM   61  C24 UNL     1       3.842   4.974  -3.100  1.00  0.00     0.158 A 
HETATM   62  C25 UNL     1       4.870   4.032  -3.147  1.00  0.00     0.181 A 
HETATM   63  O12 UNL     1       3.991   6.141  -3.780  1.00  0.00    -0.188 OA
HETATM   64  C26 UNL     1       4.741   2.825  -2.455  1.00  0.00     0.158 A 
HETATM   65  O11 UNL     1       6.002   4.280  -3.853  1.00  0.00    -0.186 OA
HETATM   66  C27 UNL     1       3.600   2.599  -1.683  1.00  0.00     0.035 A 
HETATM   67  O10 UNL     1       5.763   1.928  -2.477  1.00  0.00    -0.188 OA
ENDBRANCH  57  59
ENDBRANCH  56  57
ENDBRANCH   4  56
TORSDOF 10
