REMARK  3 active torsions:
REMARK  status: ('A' for Active; 'I' for Inactive)
REMARK    1  A    between atoms: C3_3  and  C19_21 
REMARK    2  A    between atoms: C12_12  and  C15_15 
REMARK    3  A    between atoms: C19_21  and  O3_22 
ROOT
HETATM    1  C1  UNL     1      -4.490  -0.488  -3.075  1.00  0.00     0.001 C 
HETATM    2  C2  UNL     1      -5.543  -1.214  -2.233  1.00  0.00     0.009 C 
HETATM    3  C3  UNL     1      -4.932  -1.871  -0.972  1.00  0.00     0.078 C 
HETATM    4  C4  UNL     1      -3.633  -1.121  -0.545  1.00  0.00     0.009 C 
HETATM    5  C5  UNL     1      -3.588   0.414  -0.790  1.00  0.00     0.001 C 
HETATM    6  C6  UNL     1      -3.837   0.676  -2.308  1.00  0.00     0.000 C 
HETATM    7  C7  UNL     1      -2.165   0.954  -0.407  1.00  0.00     0.000 C 
HETATM    8  C8  UNL     1      -1.537   0.449   0.921  1.00  0.00     0.003 C 
HETATM    9  C9  UNL     1      -1.710  -1.070   1.083  1.00  0.00     0.000 C 
HETATM   10  C10 UNL     1      -3.159  -1.510   0.865  1.00  0.00     0.001 C 
HETATM   11  C11 UNL     1      -0.025   0.778   0.909  1.00  0.00     0.005 C 
HETATM   12  C12 UNL     1      -0.023   2.300   1.117  1.00  0.00     0.059 C 
HETATM   13  C13 UNL     1      -0.578   2.945  -0.175  1.00  0.00     0.005 C 
HETATM   14  C14 UNL     1      -2.004   2.485  -0.517  1.00  0.00     0.000 C 
HETATM   15  C16 UNL     1      -1.027   2.456   2.270  1.00  0.00     0.154 C 
HETATM   16  C17 UNL     1      -1.982   1.260   2.159  1.00  0.00     0.033 C 
HETATM   17  O2  UNL     1      -0.371   2.412   3.514  1.00  0.00    -0.223 OA
HETATM   18  C18 UNL     1      -4.708   1.140  -0.009  1.00  0.00     0.000 C 
HETATM   19  C21 UNL     1      -6.008  -1.925   0.138  1.00  0.00     0.010 C 
ENDROOT
BRANCH   3  20
HETATM   20  C19 UNL     1      -4.526  -3.304  -1.383  1.00  0.00     0.271 C 
HETATM   21  O4  UNL     1      -3.614  -3.564  -2.137  1.00  0.00    -0.264 OA
BRANCH  20  22
HETATM   22  O3  UNL     1      -5.314  -4.257  -0.817  1.00  0.00    -0.299 OA
HETATM   23  C20 UNL     1      -5.012  -5.595  -1.130  1.00  0.00     0.184 C 
ENDBRANCH  20  22
ENDBRANCH   3  20
BRANCH  12  24
HETATM   24  C15 UNL     1       1.367   2.879   1.398  1.00  0.00     0.185 C 
HETATM   25  O1  UNL     1       2.018   2.190   2.447  1.00  0.00    -0.221 OA
ENDBRANCH  12  24
TORSDOF 3
