REMARK  4 active torsions:
REMARK  status: ('A' for Active; 'I' for Inactive)
REMARK    1  A    between atoms: C6_6  and  O1_7 
REMARK    2  A    between atoms: O1_7  and  C7_8 
REMARK    3  A    between atoms: C8_10  and  C12_17 
REMARK    4  A    between atoms: C15_22  and  C16_23 
ROOT
HETATM    1  C1  UNL     1       2.923  -0.545  -0.957  1.00  0.00     0.052 A 
HETATM    2  C2  UNL     1       2.946  -1.876  -1.411  1.00  0.00     0.135 A 
HETATM    3  C3  UNL     1       1.785  -2.650  -1.326  1.00  0.00     0.052 A 
HETATM    4  C4  UNL     1       0.642  -2.057  -0.800  1.00  0.00     0.107 A 
HETATM    5  C5  UNL     1       0.659  -0.725  -0.384  1.00  0.00     0.086 A 
HETATM    6  C6  UNL     1       1.791   0.102  -0.429  1.00  0.00     0.104 A 
HETATM    7  C13 UNL     1      -0.701  -0.387   0.082  1.00  0.00     0.222 A 
HETATM    8  C14 UNL     1      -1.451  -1.657  -0.123  1.00  0.00     0.139 A 
HETATM    9  O7  UNL     1      -0.601  -2.642  -0.636  1.00  0.00    -0.304 OA
HETATM   10  C15 UNL     1      -2.764  -1.805   0.172  1.00  0.00     0.028 C 
HETATM   11  O10 UNL     1      -1.128   0.693   0.478  1.00  0.00    -0.284 OA
HETATM   12  O11 UNL     1       4.083  -2.418  -1.926  1.00  0.00    -0.190 OA
ENDROOT
BRANCH   6  13
HETATM   13  O1  UNL     1       1.691   1.393   0.021  1.00  0.00    -0.303 OA
BRANCH  13  14
HETATM   14  C7  UNL     1       2.805   2.258   0.070  1.00  0.00     0.274 C 
HETATM   15  O2  UNL     1       3.052   2.486   1.442  1.00  0.00    -0.326 OA
HETATM   16  C8  UNL     1       4.135   3.356   1.657  1.00  0.00     0.184 C 
HETATM   17  C9  UNL     1       3.868   4.704   0.993  1.00  0.00     0.215 C 
HETATM   18  C10 UNL     1       3.577   4.521  -0.482  1.00  0.00     0.220 C 
HETATM   19  O5  UNL     1       4.984   5.553   1.103  1.00  0.00    -0.218 OA
HETATM   20  C11 UNL     1       2.426   3.551  -0.613  1.00  0.00     0.241 C 
HETATM   21  O4  UNL     1       3.229   5.756  -1.053  1.00  0.00    -0.218 OA
HETATM   22  O3  UNL     1       2.179   3.295  -1.972  1.00  0.00    -0.215 OA
BRANCH  16  23
HETATM   23  C12 UNL     1       4.344   3.508   3.157  1.00  0.00     0.214 C 
HETATM   24  O6  UNL     1       4.759   2.277   3.714  1.00  0.00    -0.218 OA
ENDBRANCH  16  23
ENDBRANCH  13  14
ENDBRANCH   6  13
BRANCH  10  25
HETATM   25  C16 UNL     1      -3.555  -3.035   0.003  1.00  0.00     0.004 A 
HETATM   26  C17 UNL     1      -4.775  -3.154   0.689  1.00  0.00     0.002 A 
HETATM   27  C18 UNL     1      -5.557  -4.300   0.560  1.00  0.00     0.029 A 
HETATM   28  C19 UNL     1      -5.163  -5.356  -0.268  1.00  0.00     0.156 A 
HETATM   29  C20 UNL     1      -3.971  -5.237  -0.991  1.00  0.00     0.156 A 
HETATM   30  O9  UNL     1      -5.910  -6.483  -0.403  1.00  0.00    -0.188 OA
HETATM   31  C21 UNL     1      -3.196  -4.082  -0.859  1.00  0.00     0.030 A 
HETATM   32  O8  UNL     1      -3.584  -6.243  -1.818  1.00  0.00    -0.188 OA
ENDBRANCH  10  25
TORSDOF 4
