REMARK  6 active torsions:
REMARK  status: ('A' for Active; 'I' for Inactive)
REMARK    1  A    between atoms: C7_9  and  C11_14 
REMARK    2  A    between atoms: C8_10  and  O3_12 
REMARK    3  A    between atoms: C11_14  and  S1_15 
REMARK    4  A    between atoms: S1_15  and  C12_16 
REMARK    5  A    between atoms: C12_16  and  C13_17 
REMARK    6  A    between atoms: C13_17  and  N1_18 
REMARK       I    between atoms: N1_18  and  C14_19 
ROOT
HETATM    1  C1  UNL     1       1.703  -4.162  -0.237  1.00  0.00     0.062 A 
HETATM    2  C2  UNL     1       0.835  -5.179  -0.088  1.00  0.00     0.081 A 
HETATM    3  O1  UNL     1      -0.511  -5.015   0.040  1.00  0.00    -0.311 OA
HETATM    4  C3  UNL     1      -1.012  -3.743   0.010  1.00  0.00     0.107 A 
HETATM    5  C4  UNL     1      -0.240  -2.576  -0.116  1.00  0.00     0.087 A 
HETATM    6  C5  UNL     1       1.228  -2.761  -0.268  1.00  0.00     0.201 A 
HETATM    7  O2  UNL     1       2.041  -1.856  -0.428  1.00  0.00    -0.286 OA
HETATM    8  C6  UNL     1      -0.821  -1.290  -0.084  1.00  0.00     0.138 C 
HETATM    9  C7  UNL     1      -2.217  -1.165   0.061  1.00  0.00     0.059 C 
HETATM   10  C8  UNL     1      -3.023  -2.321   0.070  1.00  0.00     0.099 C 
HETATM   11  C9  UNL     1      -2.389  -3.566   0.130  1.00  0.00     0.049 C 
HETATM   12  O7  UNL     1      -0.042  -0.180  -0.126  1.00  0.00    -0.190 OA
HETATM   13  C16 UNL     1       1.323  -6.608  -0.053  1.00  0.00     0.058 C 
ENDROOT
BRANCH   9  14
HETATM   14  C11 UNL     1      -2.974   0.157   0.185  1.00  0.00     0.098 C 
BRANCH  14  15
HETATM   15  S1  UNL     1      -2.197   1.768   0.152  1.00  0.00     0.193 S 
HETATM   16  O5  UNL     1      -1.401   1.979   1.345  1.00  0.00    -0.221 OA
HETATM   17  O6  UNL     1      -1.584   2.013  -1.138  1.00  0.00    -0.221 OA
BRANCH  15  18
HETATM   18  C12 UNL     1      -3.603   2.891   0.265  1.00  0.00     0.154 C 
BRANCH  18  19
HETATM   19  C13 UNL     1      -3.188   4.373   0.255  1.00  0.00     0.146 C 
BRANCH  19  20
HETATM   20  N1  UNL     1      -4.393   5.209   0.283  1.00  0.00    -0.237 NA
HETATM   21  C14 UNL     1      -4.396   6.576   0.242  1.00  0.00     0.252 C 
HETATM   22  O4  UNL     1      -5.443   7.176   0.266  1.00  0.00    -0.271 OA
HETATM   23  C15 UNL     1      -3.043   7.260   0.170  1.00  0.00     0.100 C 
ENDBRANCH  19  20
ENDBRANCH  18  19
ENDBRANCH  15  18
ENDBRANCH  14  15
ENDBRANCH   9  14
BRANCH  10  24
HETATM   24  O3  UNL     1      -4.379  -2.255   0.272  1.00  0.00    -0.328 OA
HETATM   25  C10 UNL     1      -5.140  -2.460  -0.897  1.00  0.00     0.181 C 
ENDBRANCH  10  24
TORSDOF 6
