REMARK  3 active torsions:
REMARK  status: ('A' for Active; 'I' for Inactive)
REMARK    1  A    between atoms: C7_9  and  C11_14 
REMARK    2  A    between atoms: C8_10  and  O3_12 
REMARK    3  A    between atoms: C11_14  and  C12_15 
ROOT
HETATM    1  C11 UNL     1      -0.457   1.293   0.281  1.00  0.00     0.059 C 
ENDROOT
BRANCH   1   2
HETATM    2  C7  UNL     1       0.488   0.185  -0.156  1.00  0.00     0.030 A 
HETATM    3  C6  UNL     1       1.611  -0.128   0.629  1.00  0.00     0.134 A 
HETATM    4  C4  UNL     1       2.442  -1.193   0.237  1.00  0.00     0.087 A 
HETATM    5  O8  UNL     1       1.796   0.548   1.795  1.00  0.00    -0.190 OA
HETATM    6  C3  UNL     1       2.169  -1.960  -0.909  1.00  0.00     0.107 A 
HETATM    7  C5  UNL     1       3.641  -1.562   1.032  1.00  0.00     0.201 A 
HETATM    8  O1  UNL     1       2.908  -3.037  -1.312  1.00  0.00    -0.311 OA
HETATM    9  C9  UNL     1       1.036  -1.607  -1.643  1.00  0.00     0.049 A 
HETATM   10  C2  UNL     1       4.037  -3.340  -0.612  1.00  0.00     0.081 A 
HETATM   11  C1  UNL     1       4.433  -2.691   0.498  1.00  0.00     0.062 A 
HETATM   12  C23 UNL     1       4.851  -4.491  -1.155  1.00  0.00     0.058 C 
HETATM   13  C8  UNL     1       0.225  -0.504  -1.350  1.00  0.00     0.094 A 
HETATM   14  O2  UNL     1       4.010  -0.979   2.046  1.00  0.00    -0.286 OA
BRANCH  13  15
HETATM   15  O3  UNL     1      -0.918  -0.278  -2.071  1.00  0.00    -0.328 OA
HETATM   16  C10 UNL     1      -0.708   0.445  -3.262  1.00  0.00     0.181 C 
ENDBRANCH  13  15
ENDBRANCH   1   2
BRANCH   1  17
HETATM   17  C12 UNL     1      -1.855   0.798   0.607  1.00  0.00     0.004 A 
HETATM   18  C13 UNL     1      -2.990   1.496   0.169  1.00  0.00    -0.014 A 
HETATM   19  C14 UNL     1      -4.262   0.952   0.383  1.00  0.00     0.084 A 
HETATM   20  C21 UNL     1      -2.923   2.823  -0.546  1.00  0.00     0.057 C 
HETATM   21  C15 UNL     1      -4.441  -0.260   1.066  1.00  0.00     0.134 A 
HETATM   22  C19 UNL     1      -5.422   1.731  -0.139  1.00  0.00     0.297 C 
HETATM   23  C16 UNL     1      -3.303  -0.903   1.572  1.00  0.00     0.029 A 
HETATM   24  O5  UNL     1      -5.677  -0.772   1.312  1.00  0.00    -0.190 OA
HETATM   25  C17 UNL     1      -2.019  -0.383   1.352  1.00  0.00     0.125 A 
HETATM   26  C18 UNL     1      -3.479  -2.188   2.354  1.00  0.00     0.035 C 
HETATM   27  O4  UNL     1      -0.936  -0.999   1.901  1.00  0.00    -0.191 OA
HETATM   28  O6  UNL     1      -5.338   3.052  -0.462  1.00  0.00    -0.301 OA
HETATM   29  O7  UNL     1      -6.497   1.160  -0.308  1.00  0.00    -0.259 OA
HETATM   30  C20 UNL     1      -4.128   3.698  -0.206  1.00  0.00     0.129 C 
HETATM   31  C22 UNL     1      -4.104   5.017  -0.980  1.00  0.00     0.033 C 
ENDBRANCH   1  17
TORSDOF 3
