REMARK  4 active torsions:
REMARK  status: ('A' for Active; 'I' for Inactive)
REMARK    1  A    between atoms: C7_9  and  C11_14 
REMARK    2  A    between atoms: C8_10  and  O3_12 
REMARK    3  A    between atoms: C11_14  and  C12_15 
REMARK    4  A    between atoms: C12_15  and  C13_16 
ROOT
HETATM    1  C1  UNL     1       1.643  -2.698  -1.266  1.00  0.00     0.062 A 
HETATM    2  C2  UNL     1       0.924  -3.763  -0.868  1.00  0.00     0.081 A 
HETATM    3  O1  UNL     1      -0.404  -3.716  -0.577  1.00  0.00    -0.311 OA
HETATM    4  C3  UNL     1      -1.058  -2.528  -0.747  1.00  0.00     0.106 A 
HETATM    5  C4  UNL     1      -0.456  -1.325  -1.154  1.00  0.00     0.087 A 
HETATM    6  C5  UNL     1       1.006  -1.371  -1.423  1.00  0.00     0.201 A 
HETATM    7  O2  UNL     1       1.690  -0.410  -1.757  1.00  0.00    -0.286 OA
HETATM    8  C6  UNL     1      -1.189  -0.127  -1.270  1.00  0.00     0.134 C 
HETATM    9  C7  UNL     1      -2.567  -0.128  -0.979  1.00  0.00     0.026 C 
HETATM   10  C8  UNL     1      -3.218  -1.340  -0.676  1.00  0.00     0.094 C 
HETATM   11  C9  UNL     1      -2.428  -2.479  -0.494  1.00  0.00     0.049 C 
HETATM   12  O6  UNL     1      -0.596   1.024  -1.684  1.00  0.00    -0.190 OA
HETATM   13  C20 UNL     1       1.578  -5.116  -0.715  1.00  0.00     0.058 C 
ENDROOT
BRANCH   9  14
HETATM   14  C11 UNL     1      -3.413   1.141  -1.044  1.00  0.00     0.037 C 
BRANCH  14  15
HETATM   15  C12 UNL     1      -2.794   2.508  -0.687  1.00  0.00     0.050 C 
HETATM   16  C19 UNL     1      -3.888   3.589  -0.578  1.00  0.00     0.007 C 
BRANCH  15  17
HETATM   17  C13 UNL     1      -2.018   2.482   0.619  1.00  0.00     0.074 C 
HETATM   18  C14 UNL     1      -0.838   3.130   0.705  1.00  0.00     0.057 C 
HETATM   19  C15 UNL     1      -0.120   3.213   1.996  1.00  0.00     0.177 C 
HETATM   20  C16 UNL     1      -0.908   2.658   3.164  1.00  0.00     0.099 C 
HETATM   21  O5  UNL     1       0.977   3.741   2.122  1.00  0.00    -0.291 OA
HETATM   22  C17 UNL     1      -1.768   1.473   2.732  1.00  0.00     0.129 C 
HETATM   23  O4  UNL     1      -2.596   1.797   1.652  1.00  0.00    -0.337 OA
HETATM   24  C18 UNL     1      -0.927   0.240   2.386  1.00  0.00     0.033 C 
ENDBRANCH  15  17
ENDBRANCH  14  15
ENDBRANCH   9  14
BRANCH  10  25
HETATM   25  O3  UNL     1      -4.546  -1.404  -0.335  1.00  0.00    -0.328 OA
HETATM   26  C10 UNL     1      -5.399  -1.654  -1.428  1.00  0.00     0.181 C 
ENDBRANCH  10  25
TORSDOF 4
