REMARK  9 active torsions:
REMARK  status: ('A' for Active; 'I' for Inactive)
REMARK    1  A    between atoms: C1_1  and  C28_30 
REMARK    2  A    between atoms: C2_2  and  C25_27 
REMARK    3  A    between atoms: C13_13  and  C14_14 
REMARK    4  A    between atoms: C14_14  and  C15_15 
REMARK    5  A    between atoms: C15_15  and  C16_16 
REMARK    6  A    between atoms: C16_16  and  C17_17 
REMARK    7  A    between atoms: C18_18  and  C19_19 
REMARK    8  A    between atoms: C28_30  and  C29_31 
REMARK    9  A    between atoms: C29_31  and  C30_32 
ROOT
HETATM    1  C1  UNL     1      -2.443  -2.359  -0.063  1.00  0.00     0.008 A 
HETATM    2  C2  UNL     1      -2.251  -3.882  -0.134  1.00  0.00     0.040 C 
HETATM    3  C3  UNL     1      -0.832  -4.372  -0.068  1.00  0.00    -0.027 C 
HETATM    4  C4  UNL     1       0.235  -3.600   0.161  1.00  0.00    -0.031 C 
HETATM    5  C5  UNL     1       0.168  -2.125   0.436  1.00  0.00     0.022 C 
HETATM    6  C6  UNL     1      -1.200  -1.489   0.144  1.00  0.00     0.004 A 
HETATM    7  C7  UNL     1      -1.195  -0.091  -0.488  1.00  0.00     0.000 C 
HETATM    8  C8  UNL     1       0.107   0.730  -0.611  1.00  0.00     0.000 C 
HETATM    9  C9  UNL     1       1.255   0.159   0.233  1.00  0.00     0.000 C 
HETATM   10  C10 UNL     1       1.361  -1.348  -0.160  1.00  0.00     0.004 C 
HETATM   11  C11 UNL     1       2.736  -1.728   0.424  1.00  0.00     0.000 C 
HETATM   12  C12 UNL     1       3.599  -0.462   0.297  1.00  0.00     0.000 C 
HETATM   13  C13 UNL     1       2.673   0.719  -0.083  1.00  0.00     0.000 C 
HETATM   14  C22 UNL     1       1.410  -1.627  -1.684  1.00  0.00     0.000 C 
HETATM   15  C23 UNL     1       0.929   0.396   1.729  1.00  0.00     0.000 C 
HETATM   16  C24 UNL     1      -2.179  -1.730   1.281  1.00  0.00     0.001 A 
ENDROOT
BRANCH  13  17
HETATM   17  C14 UNL     1       3.134   2.067   0.536  1.00  0.00     0.000 C 
HETATM   18  C21 UNL     1       2.215   3.236   0.134  1.00  0.00     0.000 C 
BRANCH  17  19
HETATM   19  C15 UNL     1       4.597   2.416   0.156  1.00  0.00     0.005 C 
BRANCH  19  20
HETATM   20  C16 UNL     1       5.223   3.498   1.059  1.00  0.00     0.026 C 
BRANCH  20  21
HETATM   21  C17 UNL     1       6.671   3.783   0.748  1.00  0.00    -0.024 C 
HETATM   22  C18 UNL     1       7.457   4.777   1.218  1.00  0.00     0.038 C 
HETATM   23  C20 UNL     1       8.891   4.900   0.745  1.00  0.00     0.037 C 
BRANCH  22  24
HETATM   24  C19 UNL     1       6.995   5.794   2.208  1.00  0.00     0.206 C 
HETATM   25  O1  UNL     1       7.754   6.725   2.464  1.00  0.00    -0.644 OA
HETATM   26  O2  UNL     1       5.805   5.734   2.843  1.00  0.00    -0.644 OA
ENDBRANCH  22  24
ENDBRANCH  20  21
ENDBRANCH  19  20
ENDBRANCH  17  19
ENDBRANCH  13  17
BRANCH   1  27
HETATM   27  C28 UNL     1      -3.736  -1.878  -0.753  1.00  0.00     0.012 C 
BRANCH  27  28
HETATM   28  C29 UNL     1      -4.343  -0.468  -0.634  1.00  0.00     0.098 C 
BRANCH  28  29
HETATM   29  C30 UNL     1      -5.729  -0.372  -1.254  1.00  0.00     0.185 C 
HETATM   30  O3  UNL     1      -6.061   0.902  -1.532  1.00  0.00    -0.647 OA
HETATM   31  O4  UNL     1      -6.483  -1.283  -1.499  1.00  0.00    -0.647 OA
ENDBRANCH  28  29
ENDBRANCH  27  28
ENDBRANCH   1  27
BRANCH   2  32
HETATM   32  C25 UNL     1      -2.897  -4.511  -1.359  1.00  0.00    -0.040 C 
HETATM   33  C26 UNL     1      -4.061  -5.177  -1.273  1.00  0.00    -0.009 C 
HETATM   34  C27 UNL     1      -2.185  -4.349  -2.682  1.00  0.00     0.027 C 
ENDBRANCH   2  32
TORSDOF 9
