REMARK  4 active torsions:
REMARK  status: ('A' for Active; 'I' for Inactive)
REMARK    1  A    between atoms: C1_1  and  C6_8 
REMARK    2  A    between atoms: C9_12  and  C10_13 
REMARK    3  A    between atoms: C10_13  and  C11_14 
REMARK    4  A    between atoms: C11_14  and  C12_15 
ROOT
HETATM    1  C6  UNL     1      -3.763  -1.380   0.912  1.00  0.00     0.156 A 
HETATM    2  O3  UNL     1      -3.815  -2.778   0.654  1.00  0.00    -0.296 OA
HETATM    3  C7  UNL     1      -4.590  -2.945  -0.450  1.00  0.00     0.291 A 
HETATM    4  C8  UNL     1      -5.147  -1.684  -0.969  1.00  0.00     0.036 A 
HETATM    5  C9  UNL     1      -4.653  -0.743  -0.143  1.00  0.00    -0.015 A 
HETATM    6  C14 UNL     1      -6.099  -1.546  -2.115  1.00  0.00     0.036 C 
HETATM    7  O5  UNL     1      -4.823  -4.038  -0.953  1.00  0.00    -0.260 OA
ENDROOT
BRANCH   1   8
HETATM    8  C1  UNL     1      -2.289  -0.932   0.955  1.00  0.00     0.132 C 
HETATM    9  C2  UNL     1      -2.131   0.501   1.461  1.00  0.00     0.159 C 
HETATM   10  C3  UNL     1      -1.937   0.503   2.965  1.00  0.00     0.073 C 
HETATM   11  O2  UNL     1      -2.088   1.494   0.773  1.00  0.00    -0.295 OA
HETATM   12  C4  UNL     1      -1.198  -0.816   3.226  1.00  0.00     0.073 C 
HETATM   13  C5  UNL     1      -1.553  -1.710   2.052  1.00  0.00     0.159 C 
HETATM   14  O1  UNL     1      -1.257  -2.881   1.992  1.00  0.00    -0.295 OA
HETATM   15  C15 UNL     1      -1.570  -1.122  -0.389  1.00  0.00     0.018 C 
ENDBRANCH   1   8
BRANCH   5  16
HETATM   16  C10 UNL     1      -5.016   0.716  -0.164  1.00  0.00     0.032 C 
BRANCH  16  17
HETATM   17  C11 UNL     1      -4.413   1.483  -1.351  1.00  0.00     0.069 C 
BRANCH  17  18
HETATM   18  C12 UNL     1      -4.737   2.970  -1.338  1.00  0.00     0.151 C 
HETATM   19  C13 UNL     1      -3.979   3.838  -2.324  1.00  0.00     0.072 C 
HETATM   20  O4  UNL     1      -5.563   3.440  -0.588  1.00  0.00    -0.296 OA
ENDBRANCH  17  18
ENDBRANCH  16  17
ENDBRANCH   5  16
TORSDOF 4
