REMARK  6 active torsions:
REMARK  status: ('A' for Active; 'I' for Inactive)
REMARK    1  A    between atoms: C1_1  and  O1_2 
REMARK    2  A    between atoms: O1_2  and  C2_3 
REMARK    3  A    between atoms: C2_3  and  C3_4 
REMARK    4  A    between atoms: C9_15  and  C27_45 
REMARK    5  A    between atoms: C23_34  and  C25_38 
REMARK    6  A    between atoms: C25_38  and  C26_39 
ROOT
HETATM    1  C1  UNL     1       1.245  -0.582  -1.900  1.00  0.00     0.274 C 
HETATM    2  O6  UNL     1       1.769  -1.593  -2.731  1.00  0.00    -0.326 OA
HETATM    3  C9  UNL     1       3.146  -1.768  -2.525  1.00  0.00     0.181 C 
HETATM    4  C10 UNL     1       3.372  -2.470  -1.186  1.00  0.00     0.187 C 
HETATM    5  C11 UNL     1       2.442  -1.929  -0.132  1.00  0.00     0.215 C 
HETATM    6  C12 UNL     1       1.282  -0.991  -0.436  1.00  0.00     0.214 C 
HETATM    7  O7  UNL     1       1.416   0.195   0.323  1.00  0.00    -0.293 OA
HETATM    8  C13 UNL     1       1.756   0.107   1.649  1.00  0.00     0.296 C 
HETATM    9  O8  UNL     1       1.438  -0.878   2.304  1.00  0.00    -0.259 OA
HETATM   10  C14 UNL     1       2.740   1.049   2.309  1.00  0.00     0.063 C 
HETATM   11  C15 UNL     1       4.052   1.292   1.849  1.00  0.00     0.011 C 
HETATM   12  C16 UNL     1       4.775   2.336   2.452  1.00  0.00     0.127 C 
HETATM   13  C17 UNL     1       4.289   2.963   3.610  1.00  0.00     0.178 C 
HETATM   14  C18 UNL     1       3.055   2.603   4.152  1.00  0.00     0.158 C 
HETATM   15  C19 UNL     1       2.275   1.670   3.469  1.00  0.00     0.035 C 
HETATM   16  O9  UNL     1       2.599   3.214   5.276  1.00  0.00    -0.188 OA
HETATM   17  O10 UNL     1       5.010   3.931   4.235  1.00  0.00    -0.186 OA
HETATM   18  O11 UNL     1       5.974   2.740   1.937  1.00  0.00    -0.273 OA
HETATM   19  C20 UNL     1       5.985   2.682   0.580  1.00  0.00     0.307 C 
HETATM   20  C21 UNL     1       5.963   1.232   0.131  1.00  0.00     0.242 C 
HETATM   21  C22 UNL     1       4.762   0.486   0.756  1.00  0.00     0.075 C 
HETATM   22  C23 UNL     1       5.073  -0.986   1.198  1.00  0.00     0.104 C 
HETATM   23  C24 UNL     1       5.567  -1.834   0.006  1.00  0.00     0.272 C 
HETATM   24  O12 UNL     1       4.760  -2.481  -0.906  1.00  0.00    -0.299 OA
HETATM   25  O13 UNL     1       6.773  -1.903  -0.117  1.00  0.00    -0.264 OA
HETATM   26  O16 UNL     1       7.216   0.665   0.456  1.00  0.00    -0.212 OA
HETATM   27  O17 UNL     1       5.984   3.641  -0.162  1.00  0.00    -0.261 OA
HETATM   28  O18 UNL     1       2.118  -2.912   0.820  1.00  0.00    -0.218 OA
ENDROOT
BRANCH   1  29
HETATM   29  O1  UNL     1      -0.090  -0.444  -2.346  1.00  0.00    -0.270 OA
BRANCH  29  30
HETATM   30  C2  UNL     1      -0.685   0.782  -2.244  1.00  0.00     0.298 C 
HETATM   31  O5  UNL     1      -0.011   1.779  -2.000  1.00  0.00    -0.259 OA
BRANCH  30  32
HETATM   32  C3  UNL     1      -2.167   0.923  -2.224  1.00  0.00     0.068 A 
HETATM   33  C4  UNL     1      -2.763   2.190  -2.249  1.00  0.00     0.035 A 
HETATM   34  C5  UNL     1      -4.154   2.326  -2.233  1.00  0.00     0.158 A 
HETATM   35  C6  UNL     1      -4.952   1.179  -2.185  1.00  0.00     0.181 A 
HETATM   36  O4  UNL     1      -4.754   3.545  -2.261  1.00  0.00    -0.188 OA
HETATM   37  C7  UNL     1      -4.373  -0.097  -2.164  1.00  0.00     0.158 A 
HETATM   38  O3  UNL     1      -6.305   1.292  -2.159  1.00  0.00    -0.186 OA
HETATM   39  C8  UNL     1      -2.984  -0.216  -2.198  1.00  0.00     0.035 A 
HETATM   40  O2  UNL     1      -5.170  -1.195  -2.112  1.00  0.00    -0.188 OA
ENDBRANCH  30  32
ENDBRANCH  29  30
ENDBRANCH   1  29
BRANCH   3  41
HETATM   41  C27 UNL     1       3.714  -2.566  -3.692  1.00  0.00     0.214 C 
HETATM   42  O19 UNL     1       3.679  -1.777  -4.865  1.00  0.00    -0.218 OA
ENDBRANCH   3  41
BRANCH  22  43
HETATM   43  C25 UNL     1       6.014  -1.102   2.433  1.00  0.00     0.108 C 
BRANCH  43  44
HETATM   44  C26 UNL     1       5.982  -2.485   3.069  1.00  0.00     0.186 C 
HETATM   45  O14 UNL     1       6.536  -2.490   4.294  1.00  0.00    -0.647 OA
HETATM   46  O15 UNL     1       5.503  -3.482   2.583  1.00  0.00    -0.647 OA
ENDBRANCH  43  44
ENDBRANCH  22  43
TORSDOF 6
