REMARK  6 active torsions:
REMARK  status: ('A' for Active; 'I' for Inactive)
REMARK    1  A    between atoms: C4_5  and  C27_40 
REMARK    2  A    between atoms: C6_8  and  C7_9 
REMARK    3  A    between atoms: C7_9  and  C8_10 
REMARK    4  A    between atoms: C16_21  and  C22_30 
REMARK    5  A    between atoms: C18_24  and  C19_26 
REMARK    6  A    between atoms: C27_40  and  C28_41 
ROOT
HETATM    1  C1  UNL     1      -4.396   0.892   0.121  1.00  0.00     0.274 C 
HETATM    2  C2  UNL     1      -4.783   0.693   1.576  1.00  0.00     0.186 C 
HETATM    3  N1  UNL     1      -3.694  -0.132   2.110  1.00  0.00    -0.229 NA
HETATM    4  C3  UNL     1      -3.916  -1.231   2.887  1.00  0.00     0.275 C 
HETATM    5  C4  UNL     1      -2.672  -2.066   3.158  1.00  0.00     0.196 C 
HETATM    6  N2  UNL     1      -1.854  -2.120   1.934  1.00  0.00    -0.228 NA
HETATM    7  C5  UNL     1      -0.488  -2.176   1.967  1.00  0.00     0.274 C 
HETATM    8  C6  UNL     1       0.182  -2.381   0.610  1.00  0.00     0.186 C 
HETATM    9  N3  UNL     1      -0.113  -1.359  -0.409  1.00  0.00    -0.229 NA
HETATM   10  C11 UNL     1      -0.516  -0.075  -0.165  1.00  0.00     0.277 C 
HETATM   11  C12 UNL     1      -0.507   0.794  -1.414  1.00  0.00     0.218 C 
HETATM   12  N4  UNL     1      -1.198   2.062  -1.182  1.00  0.00    -0.226 NA
HETATM   13  C13 UNL     1      -1.409   2.957  -2.194  1.00  0.00     0.272 C 
HETATM   14  C14 UNL     1      -2.118   4.252  -1.811  1.00  0.00     0.165 C 
HETATM   15  N5  UNL     1      -3.216   4.085  -0.863  1.00  0.00    -0.309 N 
HETATM   16  C15 UNL     1      -4.499   3.674  -1.149  1.00  0.00     0.274 C 
HETATM   17  C16 UNL     1      -4.813   3.243  -2.584  1.00  0.00     0.148 C 
HETATM   18  N6  UNL     1      -3.947   2.167  -3.092  1.00  0.00    -0.207 NA
HETATM   19  C17 UNL     1      -4.048   0.806  -2.951  1.00  0.00     0.278 C 
HETATM   20  C18 UNL     1      -5.180   0.196  -2.121  1.00  0.00     0.186 C 
HETATM   21  N7  UNL     1      -5.405   0.760  -0.784  1.00  0.00    -0.229 NA
HETATM   22  O1  UNL     1      -3.247   0.110  -3.526  1.00  0.00    -0.268 OA
HETATM   23  O3  UNL     1      -5.384   3.678  -0.326  1.00  0.00    -0.266 OA
HETATM   24  C24 UNL     1      -2.825   4.580   0.449  1.00  0.00     0.105 C 
HETATM   25  C25 UNL     1      -1.323   4.883   0.366  1.00  0.00     0.027 C 
HETATM   26  C26 UNL     1      -1.137   5.216  -1.117  1.00  0.00     0.034 C 
HETATM   27  O4  UNL     1      -1.065   2.756  -3.335  1.00  0.00    -0.269 OA
HETATM   28  O5  UNL     1      -0.838   0.342   0.922  1.00  0.00    -0.268 OA
HETATM   29  O6  UNL     1       0.143  -2.120   2.996  1.00  0.00    -0.268 OA
HETATM   30  O8  UNL     1      -5.012  -1.531   3.294  1.00  0.00    -0.268 OA
HETATM   31  C29 UNL     1      -4.948   1.965   2.407  1.00  0.00     0.037 C 
HETATM   32  O9  UNL     1      -3.238   0.972  -0.196  1.00  0.00    -0.268 OA
ENDROOT
BRANCH   5  33
HETATM   33  C27 UNL     1      -3.005  -3.488   3.648  1.00  0.00     0.126 C 
BRANCH  33  34
HETATM   34  C28 UNL     1      -3.492  -3.666   5.080  1.00  0.00     0.276 C 
HETATM   35  N8  UNL     1      -4.113  -2.594   5.640  1.00  0.00    -0.107 N 
HETATM   36  O7  UNL     1      -3.371  -4.693   5.701  1.00  0.00    -0.269 OA
ENDBRANCH  33  34
ENDBRANCH   5  33
BRANCH   8  37
HETATM   37  C7  UNL     1      -0.188  -3.743  -0.021  1.00  0.00     0.034 C 
BRANCH  37  38
HETATM   38  C8  UNL     1       0.483  -4.999   0.570  1.00  0.00     0.002 C 
HETATM   39  C9  UNL     1       0.313  -6.186  -0.399  1.00  0.00     0.000 C 
HETATM   40  C10 UNL     1      -0.079  -5.399   1.942  1.00  0.00     0.000 C 
ENDBRANCH  37  38
ENDBRANCH   8  37
BRANCH  20  41
HETATM   41  C19 UNL     1      -5.127  -1.355  -2.054  1.00  0.00     0.032 C 
HETATM   42  C20 UNL     1      -3.934  -1.922  -1.261  1.00  0.00     0.003 C 
HETATM   43  C21 UNL     1      -6.435  -1.930  -1.476  1.00  0.00     0.003 C 
ENDBRANCH  20  41
BRANCH  17  44
HETATM   44  C22 UNL     1      -6.318   3.236  -2.902  1.00  0.00     0.197 C 
HETATM   45  C23 UNL     1      -6.669   2.736  -4.301  1.00  0.00     0.042 C 
HETATM   46  O2  UNL     1      -7.046   2.547  -1.915  1.00  0.00    -0.217 OA
ENDBRANCH  17  44
TORSDOF 6
