REMARK  9 active torsions:
REMARK  status: ('A' for Active; 'I' for Inactive)
REMARK    1  A    between atoms: C1_1  and  C15_19 
REMARK    2  A    between atoms: C3_4  and  C7_11 
REMARK    3  A    between atoms: C4_5  and  C5_7 
REMARK    4  A    between atoms: C5_7  and  O2_8 
REMARK    5  A    between atoms: C7_11  and  C8_12 
REMARK    6  A    between atoms: C8_12  and  C9_13 
REMARK    7  A    between atoms: C9_13  and  C10_14 
REMARK    8  A    between atoms: C10_14  and  C11_15 
REMARK    9  A    between atoms: C11_15  and  C12_16 
ROOT
HETATM    1  C1  UNL     1      -2.297   3.311  -0.652  1.00  0.00     0.258 C 
HETATM    2  O1  UNL     1      -1.873   3.042   0.672  1.00  0.00    -0.331 OA
HETATM    3  C2  UNL     1      -2.275   1.788   1.151  1.00  0.00     0.147 C 
HETATM    4  C3  UNL     1      -1.726   0.675   0.260  1.00  0.00     0.062 C 
HETATM    5  C4  UNL     1      -2.307   0.857  -1.152  1.00  0.00     0.189 C 
HETATM    6  N1  UNL     1      -2.067   2.227  -1.612  1.00  0.00    -0.256 NA
ENDROOT
BRANCH   4   7
HETATM    7  C7  UNL     1      -0.183   0.639   0.234  1.00  0.00     0.005 C 
BRANCH   7   8
HETATM    8  C8  UNL     1       0.465   0.140   1.547  1.00  0.00     0.000 C 
HETATM    9  C14 UNL     1       1.344   1.239   2.170  1.00  0.00     0.000 C 
BRANCH   8  10
HETATM   10  C9  UNL     1       1.291  -1.146   1.325  1.00  0.00     0.000 C 
BRANCH  10  11
HETATM   11  C10 UNL     1       0.417  -2.367   0.987  1.00  0.00     0.000 C 
BRANCH  11  12
HETATM   12  C11 UNL     1       1.256  -3.582   0.559  1.00  0.00     0.000 C 
BRANCH  12  13
HETATM   13  C12 UNL     1       0.376  -4.807   0.265  1.00  0.00     0.000 C 
HETATM   14  C13 UNL     1       1.196  -5.989  -0.268  1.00  0.00     0.000 C 
ENDBRANCH  12  13
ENDBRANCH  11  12
ENDBRANCH  10  11
ENDBRANCH   8  10
ENDBRANCH   7   8
ENDBRANCH   4   7
BRANCH   5  15
HETATM   15  C5  UNL     1      -3.787   0.474  -1.246  1.00  0.00     0.294 C 
HETATM   16  O3  UNL     1      -4.671   1.274  -1.029  1.00  0.00    -0.262 OA
BRANCH  15  17
HETATM   17  O2  UNL     1      -4.082  -0.829  -1.531  1.00  0.00    -0.298 OA
HETATM   18  C6  UNL     1      -3.100  -1.799  -1.806  1.00  0.00     0.185 C 
ENDBRANCH  15  17
ENDBRANCH   5  15
BRANCH   1  19
HETATM   19  C15 UNL     1      -3.680   3.895  -0.789  1.00  0.00     0.109 A 
HETATM   20  N2  UNL     1      -4.255   4.381  -1.947  1.00  0.00    -0.244 NA
HETATM   21  C16 UNL     1      -5.516   4.860  -1.703  1.00  0.00     0.099 A 
HETATM   22  C17 UNL     1      -5.761   4.694  -0.357  1.00  0.00     0.022 A 
HETATM   23  C18 UNL     1      -4.613   4.101   0.212  1.00  0.00     0.021 A 
ENDBRANCH   1  19
TORSDOF 9
