REMARK  0 active torsions:
REMARK  status: ('A' for Active; 'I' for Inactive)
ROOT
HETATM    1  C1  UNL     1      -3.274   1.113  -0.061  1.00  0.00     0.056 C 
HETATM    2  C2  UNL     1      -3.212  -0.386  -0.270  1.00  0.00    -0.015 C 
HETATM    3  C3  UNL     1      -1.893  -1.106  -0.388  1.00  0.00     0.147 C 
HETATM    4  C4  UNL     1      -0.703  -0.219  -0.802  1.00  0.00     0.059 C 
HETATM    5  C5  UNL     1      -0.121   0.607   0.349  1.00  0.00     0.010 C 
HETATM    6  C6  UNL     1      -0.944   1.864   0.675  1.00  0.00     0.031 C 
HETATM    7  C7  UNL     1      -2.416   1.681   1.082  1.00  0.00     0.131 C 
HETATM    8  C8  UNL     1      -2.541   0.898   2.391  1.00  0.00     0.033 C 
HETATM    9  O1  UNL     1      -2.893   2.982   1.344  1.00  0.00    -0.226 OA
HETATM   10  C9  UNL     1       0.210  -1.246  -1.417  1.00  0.00     0.043 C 
HETATM   11  C10 UNL     1      -0.689  -2.348  -1.797  1.00  0.00     0.292 C 
HETATM   12  O2  UNL     1      -1.931  -2.217  -1.267  1.00  0.00    -0.297 OA
HETATM   13  O3  UNL     1      -0.370  -3.273  -2.539  1.00  0.00    -0.259 OA
HETATM   14  C11 UNL     1       1.535  -1.218  -1.639  1.00  0.00     0.001 C 
HETATM   15  C12 UNL     1      -4.428  -0.961  -0.355  1.00  0.00     0.007 C 
HETATM   16  C13 UNL     1      -5.477   0.071  -0.226  1.00  0.00     0.169 C 
HETATM   17  C14 UNL     1      -4.790   1.381   0.102  1.00  0.00     0.075 C 
HETATM   18  O4  UNL     1      -6.684  -0.099  -0.313  1.00  0.00    -0.292 OA
HETATM   19  C15 UNL     1      -4.757  -2.414  -0.536  1.00  0.00     0.033 C 
ENDROOT
TORSDOF 0
