REMARK  5 active torsions:
REMARK  status: ('A' for Active; 'I' for Inactive)
REMARK    1  A    between atoms: C7_7  and  C13_15 
REMARK    2  A    between atoms: C8_8  and  C11_11 
REMARK    3  A    between atoms: C11_11  and  O1_12 
REMARK    4  A    between atoms: C13_15  and  C14_16 
REMARK    5  A    between atoms: C14_16  and  C15_18 
ROOT
HETATM    1  C1  UNL     1      -4.067   0.733   2.995  1.00  0.00     0.035 C 
HETATM    2  C2  UNL     1      -5.418   1.193   2.473  1.00  0.00     0.180 C 
HETATM    3  C3  UNL     1      -5.299   2.196   1.317  1.00  0.00     0.154 C 
HETATM    4  C4  UNL     1      -4.112   1.850   0.342  1.00  0.00     0.028 C 
HETATM    5  C5  UNL     1      -3.804   0.319   0.445  1.00  0.00     0.003 C 
HETATM    6  C6  UNL     1      -3.268   0.041   1.873  1.00  0.00     0.003 C 
HETATM    7  C7  UNL     1      -3.039  -0.410  -0.722  1.00  0.00     0.016 C 
HETATM    8  C8  UNL     1      -3.506   0.167  -2.100  1.00  0.00     0.087 C 
HETATM    9  C9  UNL     1      -3.490   1.702  -2.143  1.00  0.00     0.010 C 
HETATM   10  C10 UNL     1      -4.482   2.242  -1.110  1.00  0.00     0.003 C 
HETATM   11  C19 UNL     1      -1.506  -0.323  -0.561  1.00  0.00     0.001 C 
HETATM   12  C20 UNL     1      -2.856   2.693   0.699  1.00  0.00     0.003 C 
HETATM   13  C21 UNL     1      -5.271   3.650   1.815  1.00  0.00     0.036 C 
HETATM   14  O5  UNL     1      -6.532   2.075   0.650  1.00  0.00    -0.223 OA
HETATM   15  O6  UNL     1      -6.195   1.726   3.518  1.00  0.00    -0.221 OA
ENDROOT
BRANCH   7  16
HETATM   16  C13 UNL     1      -3.408  -1.931  -0.798  1.00  0.00     0.070 C 
BRANCH  16  17
HETATM   17  C14 UNL     1      -3.135  -2.834   0.395  1.00  0.00     0.175 C 
HETATM   18  O3  UNL     1      -4.035  -3.092   1.187  1.00  0.00    -0.291 OA
BRANCH  17  19
HETATM   19  C15 UNL     1      -1.814  -3.480   0.565  1.00  0.00     0.061 A 
HETATM   20  C16 UNL     1      -0.782  -3.554  -0.329  1.00  0.00     0.126 A 
HETATM   21  O4  UNL     1       0.269  -4.219   0.221  1.00  0.00    -0.303 OA
HETATM   22  C17 UNL     1      -0.111  -4.571   1.485  1.00  0.00     0.123 A 
HETATM   23  C18 UNL     1      -1.376  -4.148   1.755  1.00  0.00     0.032 A 
ENDBRANCH  17  19
ENDBRANCH  16  17
ENDBRANCH   7  16
BRANCH   8  24
HETATM   24  C11 UNL     1      -2.758  -0.353  -3.334  1.00  0.00     0.271 C 
HETATM   25  O2  UNL     1      -1.584  -0.097  -3.502  1.00  0.00    -0.264 OA
BRANCH  24  26
HETATM   26  O1  UNL     1      -3.442  -1.118  -4.235  1.00  0.00    -0.299 OA
HETATM   27  C12 UNL     1      -4.835  -1.303  -4.192  1.00  0.00     0.184 C 
ENDBRANCH  24  26
ENDBRANCH   8  24
TORSDOF 5
