REMARK  6 active torsions:
REMARK  status: ('A' for Active; 'I' for Inactive)
REMARK    1  A    between atoms: C1_1  and  C3_3 
REMARK    2  A    between atoms: C3_3  and  C4_4 
REMARK    3  A    between atoms: C4_4  and  O1_5 
REMARK    4  A    between atoms: O1_5  and  C5_6 
REMARK    5  A    between atoms: C6_7  and  O2_8 
REMARK    6  A    between atoms: C12_14  and  O4_21 
ROOT
HETATM    1  C5  UNL     1       0.562  -0.691  -0.038  1.00  0.00     0.116 A 
HETATM    2  C6  UNL     1       0.560  -2.124   0.116  1.00  0.00     0.118 A 
HETATM    3  C8  UNL     1      -0.651  -2.780   0.159  1.00  0.00     0.045 A 
HETATM    4  C9  UNL     1      -1.908  -2.104   0.073  1.00  0.00     0.087 A 
HETATM    5  C10 UNL     1      -1.910  -0.701  -0.089  1.00  0.00     0.042 A 
HETATM    6  C11 UNL     1      -0.644  -0.040  -0.182  1.00  0.00     0.030 A 
HETATM    7  C12 UNL     1      -3.135   0.026  -0.124  1.00  0.00     0.099 A 
HETATM    8  C13 UNL     1      -4.257  -0.789  -0.151  1.00  0.00     0.066 A 
HETATM    9  C14 UNL     1      -4.204  -2.199   0.001  1.00  0.00     0.184 A 
HETATM   10  N1  UNL     1      -3.054  -2.844   0.134  1.00  0.00    -0.222 NA
HETATM   11  O3  UNL     1      -5.477  -2.698  -0.040  1.00  0.00    -0.287 OA
HETATM   12  C15 UNL     1      -6.327  -1.629  -0.228  1.00  0.00     0.125 A 
HETATM   13  C16 UNL     1      -5.659  -0.453  -0.306  1.00  0.00     0.032 A 
ENDROOT
BRANCH   1  14
HETATM   14  O1  UNL     1       1.783  -0.064  -0.118  1.00  0.00    -0.326 OA
BRANCH  14  15
HETATM   15  C4  UNL     1       1.899   1.136  -0.838  1.00  0.00     0.183 C 
BRANCH  15  16
HETATM   16  C3  UNL     1       3.362   1.573  -0.851  1.00  0.00     0.196 C 
HETATM   17  O5  UNL     1       3.571   2.387  -1.984  1.00  0.00    -0.219 OA
BRANCH  16  18
HETATM   18  C1  UNL     1       3.861   2.327   0.391  1.00  0.00     0.098 C 
HETATM   19  C2  UNL     1       3.709   1.499   1.672  1.00  0.00     0.019 C 
HETATM   20  C18 UNL     1       3.191   3.694   0.590  1.00  0.00     0.019 C 
HETATM   21 CL1  UNL     1       5.615   2.619   0.135  1.00  0.00    -0.114 Cl
ENDBRANCH  16  18
ENDBRANCH  15  16
ENDBRANCH  14  15
ENDBRANCH   1  14
BRANCH   2  22
HETATM   22  O2  UNL     1       1.781  -2.753   0.189  1.00  0.00    -0.326 OA
HETATM   23  C7  UNL     1       1.824  -4.160   0.234  1.00  0.00     0.181 C 
ENDBRANCH   2  22
BRANCH   7  24
HETATM   24  O4  UNL     1      -3.216   1.369  -0.373  1.00  0.00    -0.328 OA
HETATM   25  C17 UNL     1      -3.231   2.157   0.794  1.00  0.00     0.181 C 
ENDBRANCH   7  24
TORSDOF 6
