REMARK  12 active torsions:
REMARK  status: ('A' for Active; 'I' for Inactive)
REMARK    1  A    between atoms: C2_2  and  C3_3 
REMARK    2  A    between atoms: C3_3  and  C4_4 
REMARK    3  A    between atoms: C4_4  and  C5_5 
REMARK    4  A    between atoms: C5_5  and  C6_6 
REMARK    5  A    between atoms: C6_6  and  C7_7 
REMARK    6  A    between atoms: C7_7  and  C8_8 
REMARK    7  A    between atoms: C9_10  and  C10_11 
REMARK    8  A    between atoms: C10_11  and  C11_12 
REMARK    9  A    between atoms: C12_13  and  C13_14 
REMARK   10  A    between atoms: C14_15  and  C15_16 
REMARK   11  A    between atoms: C15_16  and  C16_18 
REMARK   12  A    between atoms: C16_18  and  C17_19 
ROOT
HETATM    1  C10 UNL     1       1.300   1.809  -0.109  1.00  0.00     0.109 C 
ENDROOT
BRANCH   1   2
HETATM    2  C9  UNL     1       1.154   2.018   1.393  1.00  0.00     0.155 A 
HETATM    3  C8  UNL     1       1.821   1.208   2.325  1.00  0.00     0.143 A 
HETATM    4  O1  UNL     1       2.487   2.547   1.963  1.00  0.00    -0.353 OA
BRANCH   3   5
HETATM    5  C7  UNL     1       2.801   0.104   1.945  1.00  0.00     0.032 C 
BRANCH   5   6
HETATM    6  C6  UNL     1       2.218  -1.308   2.117  1.00  0.00     0.003 C 
BRANCH   6   7
HETATM    7  C5  UNL     1       3.257  -2.398   1.803  1.00  0.00     0.000 C 
BRANCH   7   8
HETATM    8  C4  UNL     1       2.732  -3.810   2.108  1.00  0.00     0.000 C 
BRANCH   8   9
HETATM    9  C3  UNL     1       3.782  -4.892   1.805  1.00  0.00     0.000 C 
BRANCH   9  10
HETATM   10  C2  UNL     1       3.293  -6.297   2.189  1.00  0.00     0.000 C 
HETATM   11  C1  UNL     1       4.348  -7.368   1.881  1.00  0.00     0.000 C 
ENDBRANCH   9  10
ENDBRANCH   8   9
ENDBRANCH   7   8
ENDBRANCH   6   7
ENDBRANCH   5   6
ENDBRANCH   3   5
ENDBRANCH   1   2
BRANCH   1  12
HETATM   12  C11 UNL     1       0.065   2.233  -0.796  1.00  0.00    -0.075 C 
HETATM   13  C12 UNL     1      -0.929   2.641  -1.358  1.00  0.00    -0.014 C 
BRANCH  13  14
HETATM   14  C13 UNL     1      -2.109   3.154  -2.028  1.00  0.00    -0.012 C 
HETATM   15  C14 UNL     1      -3.087   3.599  -2.589  1.00  0.00    -0.043 C 
BRANCH  15  16
HETATM   16  C15 UNL     1      -4.256   4.171  -3.284  1.00  0.00     0.247 C 
HETATM   17  O2  UNL     1      -4.759   5.269  -2.539  1.00  0.00    -0.206 OA
BRANCH  16  18
HETATM   18  C16 UNL     1      -5.412   3.204  -3.484  1.00  0.00     0.211 C 
HETATM   19  O3  UNL     1      -5.944   2.903  -2.216  1.00  0.00    -0.218 OA
BRANCH  18  20
HETATM   20  C17 UNL     1      -5.017   1.906  -4.170  1.00  0.00     0.132 C 
HETATM   21 CL1  UNL     1      -6.449   0.854  -4.320  1.00  0.00    -0.111 Cl
ENDBRANCH  18  20
ENDBRANCH  16  18
ENDBRANCH  15  16
ENDBRANCH  13  14
ENDBRANCH   1  12
TORSDOF 12
