REMARK  2 active torsions:
REMARK  status: ('A' for Active; 'I' for Inactive)
REMARK    1  A    between atoms: C9_10  and  C11_13 
REMARK    2  A    between atoms: C11_13  and  C12_14 
ROOT
HETATM    1  C1  UNL     1       4.428   1.124   0.149  1.00  0.00     0.030 A 
HETATM    2  C2  UNL     1       4.450  -0.257   0.018  1.00  0.00     0.030 A 
HETATM    3  C3  UNL     1       3.249  -0.979  -0.065  1.00  0.00     0.134 A 
HETATM    4  C4  UNL     1       2.022  -0.316  -0.012  1.00  0.00     0.069 A 
HETATM    5  C5  UNL     1       2.005   1.081   0.121  1.00  0.00     0.070 A 
HETATM    6  C6  UNL     1       3.204   1.798   0.199  1.00  0.00     0.134 A 
HETATM    7  O1  UNL     1       3.180   3.140   0.334  1.00  0.00    -0.190 OA
HETATM    8  C7  UNL     1       0.730   1.830   0.181  1.00  0.00     0.208 A 
HETATM    9  C8  UNL     1      -0.501   1.026   0.091  1.00  0.00     0.096 A 
HETATM   10  C9  UNL     1      -0.515  -0.317  -0.037  1.00  0.00     0.035 A 
HETATM   11  C10 UNL     1       0.758  -1.103  -0.098  1.00  0.00     0.195 A 
HETATM   12  O2  UNL     1       0.704  -2.314  -0.214  1.00  0.00    -0.287 OA
HETATM   13 CL1  UNL     1      -1.796   2.188   0.188  1.00  0.00    -0.079 Cl
HETATM   14  O3  UNL     1       0.657   3.044   0.296  1.00  0.00    -0.286 OA
HETATM   15  O4  UNL     1       3.324  -2.318  -0.184  1.00  0.00    -0.190 OA
ENDROOT
BRANCH  10  16
HETATM   16  C11 UNL     1      -1.794  -1.091  -0.124  1.00  0.00     0.056 C 
BRANCH  16  17
HETATM   17  C12 UNL     1      -2.978  -0.250  -0.057  1.00  0.00    -0.030 C 
HETATM   18  C13 UNL     1      -4.274  -0.563  -0.100  1.00  0.00    -0.048 C 
HETATM   19  C14 UNL     1      -5.348   0.462  -0.014  1.00  0.00     0.026 C 
HETATM   20  C15 UNL     1      -4.515  -1.998  -0.239  1.00  0.00     0.026 C 
ENDBRANCH  16  17
ENDBRANCH  10  16
TORSDOF 2
