REMARK  7 active torsions:
REMARK  status: ('A' for Active; 'I' for Inactive)
REMARK    1  A    between atoms: C1_1  and  O6_22 
REMARK    2  A    between atoms: C7_8  and  C10_12 
REMARK    3  A    between atoms: C14_16  and  O3_18 
REMARK    4  A    between atoms: O6_22  and  C17_23 
REMARK    5  A    between atoms: C18_25  and  C22_32 
REMARK    6  A    between atoms: C22_32  and  O11_33 
REMARK    7  A    between atoms: O11_33  and  C23_34 
ROOT
HETATM    1  O6  UNL     1      -0.422   2.382   1.255  1.00  0.00    -0.303 OA
ENDROOT
BRANCH   1   2
HETATM    2  C1  UNL     1       0.920   2.603   1.432  1.00  0.00     0.101 A 
HETATM    3  C2  UNL     1       1.351   3.913   1.666  1.00  0.00     0.052 A 
HETATM    4  C3  UNL     1       2.685   4.283   1.869  1.00  0.00     0.138 A 
HETATM    5  C4  UNL     1       3.647   3.258   1.864  1.00  0.00     0.087 A 
HETATM    6  O5  UNL     1       2.983   5.599   2.049  1.00  0.00    -0.190 OA
HETATM    7  C5  UNL     1       3.282   1.914   1.680  1.00  0.00     0.107 A 
HETATM    8  C9  UNL     1       5.088   3.544   2.062  1.00  0.00     0.202 A 
HETATM    9  C6  UNL     1       1.928   1.629   1.473  1.00  0.00     0.049 A 
HETATM   10  O1  UNL     1       4.168   0.874   1.687  1.00  0.00    -0.307 OA
HETATM   11  C7  UNL     1       5.506   1.113   1.836  1.00  0.00     0.103 A 
HETATM   12  C8  UNL     1       5.983   2.367   2.024  1.00  0.00     0.067 A 
HETATM   13  O2  UNL     1       5.548   4.668   2.239  1.00  0.00    -0.286 OA
BRANCH  11  14
HETATM   14  C10 UNL     1       6.427  -0.050   1.816  1.00  0.00     0.025 A 
HETATM   15  C11 UNL     1       5.863  -1.337   1.775  1.00  0.00     0.004 A 
HETATM   16  C12 UNL     1       6.671  -2.470   1.759  1.00  0.00     0.029 A 
HETATM   17  C13 UNL     1       8.064  -2.368   1.778  1.00  0.00     0.153 A 
HETATM   18  C14 UNL     1       8.669  -1.103   1.810  1.00  0.00     0.119 A 
HETATM   19  O4  UNL     1       8.842  -3.484   1.761  1.00  0.00    -0.188 OA
HETATM   20  C15 UNL     1       7.830   0.024   1.825  1.00  0.00     0.028 A 
BRANCH  18  21
HETATM   21  O3  UNL     1      10.042  -1.068   1.821  1.00  0.00    -0.326 OA
HETATM   22  C16 UNL     1      10.695   0.179   1.854  1.00  0.00     0.181 C 
ENDBRANCH  18  21
ENDBRANCH  11  14
ENDBRANCH   1   2
BRANCH   1  23
HETATM   23  C17 UNL     1      -1.002   1.134   1.568  1.00  0.00     0.274 C 
HETATM   24  O7  UNL     1      -1.779   0.817   0.433  1.00  0.00    -0.326 OA
HETATM   25  C18 UNL     1      -2.464  -0.402   0.573  1.00  0.00     0.180 C 
HETATM   26  C19 UNL     1      -3.398  -0.344   1.777  1.00  0.00     0.215 C 
HETATM   27  C20 UNL     1      -2.622   0.002   3.032  1.00  0.00     0.220 C 
HETATM   28  O10 UNL     1      -4.020  -1.587   1.989  1.00  0.00    -0.218 OA
HETATM   29  C21 UNL     1      -1.882   1.298   2.785  1.00  0.00     0.241 C 
HETATM   30  O9  UNL     1      -3.514   0.154   4.106  1.00  0.00    -0.218 OA
HETATM   31  O8  UNL     1      -1.070   1.605   3.889  1.00  0.00    -0.215 OA
BRANCH  25  32
HETATM   32  C22 UNL     1      -3.221  -0.671  -0.723  1.00  0.00     0.177 C 
BRANCH  32  33
HETATM   33  O11 UNL     1      -2.287  -0.841  -1.761  1.00  0.00    -0.326 OA
BRANCH  33  34
HETATM   34  C23 UNL     1      -2.872  -1.147  -3.008  1.00  0.00     0.270 C 
HETATM   35  O12 UNL     1      -3.298  -2.486  -2.922  1.00  0.00    -0.329 OA
HETATM   36  C24 UNL     1      -3.883  -2.964  -4.103  1.00  0.00     0.151 C 
HETATM   37  C25 UNL     1      -2.949  -2.828  -5.302  1.00  0.00     0.212 C 
HETATM   38  C28 UNL     1      -5.282  -2.382  -4.319  1.00  0.00     0.035 C 
HETATM   39  C26 UNL     1      -2.281  -1.469  -5.411  1.00  0.00     0.220 C 
HETATM   40  O15 UNL     1      -1.933  -3.802  -5.194  1.00  0.00    -0.218 OA
HETATM   41  C27 UNL     1      -1.790  -1.015  -4.054  1.00  0.00     0.241 C 
HETATM   42  O14 UNL     1      -3.185  -0.506  -5.893  1.00  0.00    -0.218 OA
HETATM   43  O13 UNL     1      -1.411   0.337  -4.140  1.00  0.00    -0.215 OA
ENDBRANCH  33  34
ENDBRANCH  32  33
ENDBRANCH  25  32
ENDBRANCH   1  23
TORSDOF 7
