REMARK  3 active torsions:
REMARK  status: ('A' for Active; 'I' for Inactive)
REMARK    1  A    between atoms: C2_2  and  C17_22 
REMARK    2  A    between atoms: C7_8  and  C10_12 
REMARK    3  A    between atoms: C13_15  and  O3_18 
ROOT
HETATM    1  C1  UNL     1      -2.045   0.582   1.045  1.00  0.00     0.133 A 
HETATM    2  C2  UNL     1      -1.651   1.888   0.696  1.00  0.00     0.056 A 
HETATM    3  C3  UNL     1      -0.275   2.130   0.488  1.00  0.00     0.136 A 
HETATM    4  C4  UNL     1       0.648   1.065   0.532  1.00  0.00     0.087 A 
HETATM    5  C5  UNL     1       0.256  -0.254   0.796  1.00  0.00     0.107 A 
HETATM    6  C6  UNL     1      -1.097  -0.442   1.071  1.00  0.00     0.052 A 
HETATM    7  O1  UNL     1       1.094  -1.330   0.835  1.00  0.00    -0.307 OA
HETATM    8  C7  UNL     1       2.432  -1.152   0.620  1.00  0.00     0.103 A 
HETATM    9  C8  UNL     1       2.948   0.071   0.346  1.00  0.00     0.067 A 
HETATM   10  C9  UNL     1       2.096   1.278   0.279  1.00  0.00     0.202 A 
HETATM   11  O2  UNL     1       2.606   2.361   0.006  1.00  0.00    -0.286 OA
HETATM   12  O5  UNL     1       0.167   3.399   0.291  1.00  0.00    -0.190 OA
HETATM   13  O9  UNL     1      -3.323   0.246   1.376  1.00  0.00    -0.190 OA
ENDROOT
BRANCH   2  14
HETATM   14  C17 UNL     1      -2.696   3.020   0.634  1.00  0.00     0.144 C 
HETATM   15  C18 UNL     1      -2.469   4.225  -0.289  1.00  0.00     0.070 C 
HETATM   16  C19 UNL     1      -2.534   3.803  -1.751  1.00  0.00     0.188 C 
HETATM   17  C20 UNL     1      -3.868   3.128  -2.016  1.00  0.00     0.209 C 
HETATM   18  O8  UNL     1      -1.492   2.899  -2.032  1.00  0.00    -0.221 OA
HETATM   19  C21 UNL     1      -4.187   2.088  -0.946  1.00  0.00     0.149 C 
HETATM   20  O7  UNL     1      -4.876   4.112  -2.074  1.00  0.00    -0.218 OA
HETATM   21  O6  UNL     1      -4.014   2.587   0.355  1.00  0.00    -0.352 OA
HETATM   22  C22 UNL     1      -5.615   1.552  -1.061  1.00  0.00     0.035 C 
ENDBRANCH   2  14
BRANCH   8  23
HETATM   23  C10 UNL     1       3.317  -2.340   0.634  1.00  0.00     0.025 A 
HETATM   24  C11 UNL     1       2.735  -3.618   0.621  1.00  0.00     0.031 A 
HETATM   25  C12 UNL     1       3.487  -4.795   0.605  1.00  0.00     0.153 A 
HETATM   26  C13 UNL     1       4.891  -4.741   0.611  1.00  0.00     0.119 A 
HETATM   27  O4  UNL     1       2.874  -6.009   0.574  1.00  0.00    -0.188 OA
HETATM   28  C14 UNL     1       5.478  -3.469   0.648  1.00  0.00     0.026 A 
HETATM   29  C15 UNL     1       4.718  -2.297   0.664  1.00  0.00     0.004 A 
BRANCH  26  30
HETATM   30  O3  UNL     1       5.576  -5.929   0.587  1.00  0.00    -0.326 OA
HETATM   31  C16 UNL     1       6.984  -5.897   0.592  1.00  0.00     0.181 C 
ENDBRANCH  26  30
ENDBRANCH   8  23
TORSDOF 3
