REMARK  2 active torsions:
REMARK  status: ('A' for Active; 'I' for Inactive)
REMARK    1  A    between atoms: C3_3  and  C4_4 
REMARK    2  A    between atoms: C5_5  and  C9_9 
ROOT
HETATM    1  C4  UNL     1      -0.106   0.618   0.657  1.00  0.00     0.029 A 
HETATM    2  C5  UNL     1       0.939   1.179  -0.289  1.00  0.00     0.069 A 
HETATM    3  C6  UNL     1      -0.498   1.651  -0.381  1.00  0.00     0.011 A 
HETATM    4  C7  UNL     1      -0.783   3.046   0.162  1.00  0.00     0.001 C 
HETATM    5  C8  UNL     1      -1.366   1.285  -1.581  1.00  0.00     0.001 C 
ENDROOT
BRANCH   1   6
HETATM    6  C3  UNL     1      -0.528  -0.767   0.357  1.00  0.00    -0.035 C 
HETATM    7  C2  UNL     1       0.154  -1.847   0.777  1.00  0.00    -0.048 C 
HETATM    8  C1  UNL     1      -0.334  -3.246   0.488  1.00  0.00     0.026 C 
HETATM    9  C10 UNL     1       1.442  -1.773   1.562  1.00  0.00     0.026 C 
ENDBRANCH   1   6
BRANCH   2  10
HETATM   10  C9  UNL     1       1.323   0.320  -1.403  1.00  0.00     0.207 C 
HETATM   11  O1  UNL     1       1.478   0.790  -2.506  1.00  0.00    -0.288 OA
ENDBRANCH   2  10
TORSDOF 2
