REMARK  5 active torsions:
REMARK  status: ('A' for Active; 'I' for Inactive)
REMARK    1  A    between atoms: C2_2  and  O7_36 
REMARK    2  A    between atoms: C15_16  and  C18_19 
REMARK    3  A    between atoms: C18_19  and  C19_20 
REMARK    4  A    between atoms: C22_24  and  O3_27 
REMARK    5  A    between atoms: O7_36  and  S1_37 
ROOT
HETATM    1  C1  UNL     1      -5.357  -0.595  -0.342  1.00  0.00     0.096 C 
HETATM    2  C2  UNL     1      -6.147  -1.447   0.655  1.00  0.00     0.149 C 
HETATM    3  C3  UNL     1      -5.200  -2.082   1.683  1.00  0.00     0.054 C 
HETATM    4  C4  UNL     1      -3.783  -1.561   1.584  1.00  0.00    -0.040 C 
HETATM    5  C5  UNL     1      -3.593  -0.053   1.488  1.00  0.00     0.066 C 
HETATM    6  C6  UNL     1      -4.561   0.456   0.413  1.00  0.00     0.156 C 
HETATM    7  O1  UNL     1      -4.721   1.633   0.181  1.00  0.00    -0.296 OA
HETATM    8  C7  UNL     1      -2.139   0.276   1.054  1.00  0.00     0.010 C 
HETATM    9  C8  UNL     1      -1.113  -0.539   1.864  1.00  0.00     0.005 C 
HETATM   10  C9  UNL     1      -1.303  -2.031   1.554  1.00  0.00     0.025 C 
HETATM   11  C10 UNL     1      -2.753  -2.423   1.597  1.00  0.00    -0.034 C 
HETATM   12  C11 UNL     1       0.333   0.028   1.843  1.00  0.00     0.003 C 
HETATM   13  C12 UNL     1       0.734   0.990   0.686  1.00  0.00     0.026 C 
HETATM   14  C13 UNL     1      -0.418   1.944   0.281  1.00  0.00     0.002 C 
HETATM   15  C14 UNL     1      -1.712   1.749   1.087  1.00  0.00     0.001 C 
HETATM   16  C15 UNL     1       1.226   0.022  -0.437  1.00  0.00     0.129 C 
HETATM   17  C16 UNL     1       1.818  -1.185   0.333  1.00  0.00     0.031 C 
HETATM   18  C17 UNL     1       1.454  -1.021   1.815  1.00  0.00     0.003 C 
HETATM   19  O6  UNL     1       0.082  -0.529  -1.047  1.00  0.00    -0.226 OA
HETATM   20  C28 UNL     1       1.886   1.895   1.215  1.00  0.00     0.002 C 
HETATM   21  C29 UNL     1      -3.985   0.614   2.820  1.00  0.00     0.011 C 
ENDROOT
BRANCH  16  22
HETATM   22  C18 UNL     1       2.080   0.677  -1.573  1.00  0.00     0.056 C 
HETATM   23  C27 UNL     1       1.391   0.638  -2.958  1.00  0.00     0.005 C 
BRANCH  22  24
HETATM   24  C19 UNL     1       3.540   0.179  -1.683  1.00  0.00     0.123 C 
HETATM   25  O2  UNL     1       4.205   0.503  -0.491  1.00  0.00    -0.329 OA
HETATM   26  C20 UNL     1       5.457  -0.128  -0.409  1.00  0.00     0.300 C 
HETATM   27  C21 UNL     1       6.416   0.467  -1.419  1.00  0.00     0.203 C 
HETATM   28  O5  UNL     1       5.901   0.116   0.914  1.00  0.00    -0.187 OA
HETATM   29  C22 UNL     1       5.839   0.268  -2.835  1.00  0.00     0.126 C 
HETATM   30  O4  UNL     1       7.618  -0.245  -1.308  1.00  0.00    -0.218 OA
HETATM   31  C26 UNL     1       6.747   1.926  -1.076  1.00  0.00     0.041 C 
HETATM   32  C23 UNL     1       4.370   0.747  -2.848  1.00  0.00     0.060 C 
HETATM   33  C24 UNL     1       5.868  -1.221  -3.255  1.00  0.00     0.033 C 
BRANCH  29  34
HETATM   34  O3  UNL     1       6.695   0.890  -3.760  1.00  0.00    -0.354 OA
HETATM   35  C25 UNL     1       6.275   2.106  -4.336  1.00  0.00     0.174 C 
ENDBRANCH  29  34
ENDBRANCH  22  24
ENDBRANCH  16  22
BRANCH   2  36
HETATM   36  O7  UNL     1      -7.082  -0.612   1.282  1.00  0.00    -0.240 OA
BRANCH  36  37
HETATM   37  S1  UNL     1      -8.245  -1.361   2.226  1.00  0.00     0.252 S 
HETATM   38  O8  UNL     1      -7.990   0.009   3.154  1.00  0.00    -0.572 OA
HETATM   39  O9  UNL     1      -9.809  -1.001   2.697  1.00  0.00    -0.572 OA
HETATM   40  O10 UNL     1      -9.059  -1.644   0.794  1.00  0.00    -0.572 OA
ENDBRANCH  36  37
ENDBRANCH   2  36
TORSDOF 5
