REMARK  6 active torsions:
REMARK  status: ('A' for Active; 'I' for Inactive)
REMARK    1  A    between atoms: C2_2  and  O8_40 
REMARK    2  A    between atoms: C13_13  and  O1_15 
REMARK    3  A    between atoms: O1_15  and  C15_16 
REMARK    4  A    between atoms: C20_24  and  C24_28 
REMARK    5  A    between atoms: C24_28  and  C25_29 
REMARK    6  A    between atoms: O8_40  and  C33_41 
ROOT
HETATM    1  C1  UNL     1      -3.580  -0.100  -2.527  1.00  0.00     0.030 C 
HETATM    2  C2  UNL     1      -3.418  -1.627  -2.603  1.00  0.00     0.118 C 
HETATM    3  C3  UNL     1      -2.039  -2.042  -2.007  1.00  0.00     0.025 C 
HETATM    4  C4  UNL     1      -1.999  -1.619  -0.505  1.00  0.00     0.007 C 
HETATM    5  C5  UNL     1      -2.214  -0.111  -0.341  1.00  0.00     0.004 A 
HETATM    6  C6  UNL     1      -3.443   0.410  -1.085  1.00  0.00     0.003 C 
HETATM    7  C7  UNL     1      -0.998   0.759  -0.044  1.00  0.00     0.018 A 
HETATM    8  C8  UNL     1       0.320   0.053   0.040  1.00  0.00    -0.043 C 
HETATM    9  C9  UNL     1       0.393  -1.279   0.176  1.00  0.00    -0.034 C 
HETATM   10  C10 UNL     1      -0.808  -2.164   0.300  1.00  0.00     0.025 C 
HETATM   11  C11 UNL     1       1.551   0.926  -0.096  1.00  0.00     0.073 C 
HETATM   12  C12 UNL     1       1.344   2.282   0.643  1.00  0.00     0.040 C 
HETATM   13  C13 UNL     1       0.293   3.054  -0.187  1.00  0.00     0.125 C 
HETATM   14  C14 UNL     1      -0.935   2.195  -0.577  1.00  0.00     0.034 C 
HETATM   15  C17 UNL     1       2.778   2.915   0.729  1.00  0.00     0.065 C 
HETATM   16  C18 UNL     1       3.740   1.724   0.732  1.00  0.00     0.271 C 
HETATM   17  C19 UNL     1       2.855   0.496   0.558  1.00  0.00     0.207 C 
HETATM   18  O3  UNL     1       3.225  -0.617   0.846  1.00  0.00    -0.291 OA
HETATM   19  O4  UNL     1       4.525   1.613   1.889  1.00  0.00    -0.327 OA
HETATM   20  C20 UNL     1       5.407   2.676   2.091  1.00  0.00     0.151 C 
HETATM   21  C21 UNL     1       4.676   4.017   1.964  1.00  0.00     0.033 C 
HETATM   22  C22 UNL     1       3.145   3.855   1.907  1.00  0.00     0.008 C 
HETATM   23  C23 UNL     1       2.497   5.248   1.852  1.00  0.00     0.000 C 
HETATM   24  O7  UNL     1       4.682   1.751  -0.328  1.00  0.00    -0.188 OA
HETATM   25  C28 UNL     1       0.837   2.054   2.090  1.00  0.00     0.003 C 
HETATM   26  C29 UNL     1       1.874   0.988  -1.607  1.00  0.00     0.012 C 
HETATM   27  C30 UNL     1      -2.022   0.474   1.037  1.00  0.00     0.004 A 
HETATM   28  C31 UNL     1      -0.894  -1.363  -2.801  1.00  0.00     0.002 C 
HETATM   29  C32 UNL     1      -1.799  -3.559  -2.195  1.00  0.00     0.002 C 
ENDROOT
BRANCH   2  30
HETATM   30  O8  UNL     1      -4.504  -2.172  -1.894  1.00  0.00    -0.332 OA
BRANCH  30  31
HETATM   31  C33 UNL     1      -4.991  -3.419  -2.337  1.00  0.00     0.270 C 
HETATM   32  O9  UNL     1      -5.971  -3.155  -3.318  1.00  0.00    -0.326 OA
HETATM   33  C34 UNL     1      -6.525  -4.348  -3.827  1.00  0.00     0.181 C 
HETATM   34  C35 UNL     1      -7.182  -5.162  -2.723  1.00  0.00     0.215 C 
HETATM   35  C36 UNL     1      -6.198  -5.429  -1.604  1.00  0.00     0.220 C 
HETATM   36  O12 UNL     1      -7.619  -6.405  -3.217  1.00  0.00    -0.218 OA
HETATM   37  C37 UNL     1      -5.637  -4.102  -1.151  1.00  0.00     0.241 C 
HETATM   38  O11 UNL     1      -6.851  -6.055  -0.529  1.00  0.00    -0.218 OA
HETATM   39  O10 UNL     1      -4.683  -4.332  -0.146  1.00  0.00    -0.215 OA
ENDBRANCH  30  31
ENDBRANCH   2  30
BRANCH  13  40
HETATM   40  O1  UNL     1      -0.126   4.190   0.509  1.00  0.00    -0.304 OA
BRANCH  40  41
HETATM   41  C15 UNL     1      -0.433   5.378  -0.088  1.00  0.00     0.272 C 
HETATM   42  O2  UNL     1      -0.874   6.316   0.543  1.00  0.00    -0.264 OA
HETATM   43  C16 UNL     1      -0.151   5.500  -1.575  1.00  0.00     0.106 C 
ENDBRANCH  40  41
ENDBRANCH  13  40
BRANCH  20  44
HETATM   44  C24 UNL     1       6.135   2.460   3.422  1.00  0.00     0.207 C 
HETATM   45  O6  UNL     1       7.103   3.480   3.544  1.00  0.00    -0.218 OA
BRANCH  44  46
HETATM   46  C25 UNL     1       6.807   1.085   3.594  1.00  0.00     0.157 C 
HETATM   47  C26 UNL     1       7.997   1.130   4.562  1.00  0.00     0.036 C 
HETATM   48  C27 UNL     1       5.827   0.021   4.111  1.00  0.00     0.036 C 
HETATM   49  O5  UNL     1       7.302   0.646   2.354  1.00  0.00    -0.223 OA
ENDBRANCH  44  46
ENDBRANCH  20  44
TORSDOF 6
