REMARK  6 active torsions:
REMARK  status: ('A' for Active; 'I' for Inactive)
REMARK    1  A    between atoms: C1_2  and  C2_3 
REMARK    2  A    between atoms: C3_4  and  C4_5 
REMARK    3  A    between atoms: C8_9  and  O2_11 
REMARK    4  A    between atoms: C14_18  and  C18_23 
REMARK    5  A    between atoms: C16_20  and  O5_21 
REMARK    6  A    between atoms: C19_24  and  C20_25 
ROOT
HETATM    1  C2  UNL     1       0.299   0.494   1.076  1.00  0.00     0.089 C 
HETATM    2  C3  UNL     1      -0.461  -0.854   0.931  1.00  0.00     0.150 C 
HETATM    3  O4  UNL     1       0.409  -1.784   0.286  1.00  0.00    -0.327 OA
HETATM    4  C11 UNL     1       1.669  -1.238   0.184  1.00  0.00     0.113 C 
HETATM    5  C12 UNL     1       1.681   0.070   0.654  1.00  0.00     0.007 C 
HETATM    6  C13 UNL     1       2.859   0.812   0.646  1.00  0.00    -0.002 C 
HETATM    7  C14 UNL     1       4.027   0.216   0.143  1.00  0.00     0.002 C 
HETATM    8  C15 UNL     1       3.980  -1.129  -0.278  1.00  0.00     0.026 C 
HETATM    9  C16 UNL     1       2.831  -1.925  -0.196  1.00  0.00     0.116 C 
ENDROOT
BRANCH   2  10
HETATM   10  C4  UNL     1      -1.765  -0.701   0.183  1.00  0.00     0.009 A 
HETATM   11  C5  UNL     1      -2.991  -0.917   0.816  1.00  0.00     0.026 A 
HETATM   12  C6  UNL     1      -4.198  -0.742   0.135  1.00  0.00     0.133 A 
HETATM   13  C7  UNL     1      -4.140  -0.333  -1.201  1.00  0.00     0.051 A 
HETATM   14  O3  UNL     1      -5.395  -0.935   0.749  1.00  0.00    -0.190 OA
HETATM   15  C8  UNL     1      -2.941  -0.121  -1.895  1.00  0.00     0.096 A 
HETATM   16  C9  UNL     1      -1.762  -0.309  -1.160  1.00  0.00     0.022 A 
BRANCH  15  17
HETATM   17  O2  UNL     1      -2.999   0.311  -3.196  1.00  0.00    -0.328 OA
HETATM   18  C10 UNL     1      -1.812   0.774  -3.799  1.00  0.00     0.181 C 
ENDBRANCH  15  17
ENDBRANCH   2  10
BRANCH   1  19
HETATM   19  C1  UNL     1       0.201   1.062   2.487  1.00  0.00     0.190 C 
HETATM   20  O1  UNL     1       0.808   2.337   2.545  1.00  0.00    -0.220 OA
ENDBRANCH   1  19
BRANCH   9  21
HETATM   21  O5  UNL     1       2.778  -3.167  -0.768  1.00  0.00    -0.326 OA
HETATM   22  C17 UNL     1       2.910  -4.218   0.161  1.00  0.00     0.181 C 
ENDBRANCH   9  21
BRANCH   7  23
HETATM   23  C18 UNL     1       5.304   0.938   0.031  1.00  0.00     0.006 C 
HETATM   24  C19 UNL     1       5.440   2.287   0.064  1.00  0.00     0.070 C 
BRANCH  24  25
HETATM   25  C20 UNL     1       6.747   2.964  -0.082  1.00  0.00     0.211 C 
HETATM   26  O6  UNL     1       6.845   4.310  -0.112  1.00  0.00    -0.644 OA
HETATM   27  O7  UNL     1       7.790   2.327  -0.180  1.00  0.00    -0.644 OA
ENDBRANCH  24  25
ENDBRANCH   7  23
TORSDOF 6
