REMARK  12 active torsions:
REMARK  status: ('A' for Active; 'I' for Inactive)
REMARK    1  A    between atoms: C4_4  and  O3_9 
REMARK    2  A    between atoms: C5_6  and  C6_7 
REMARK    3  A    between atoms: O3_9  and  C7_10 
REMARK    4  A    between atoms: C22_25  and  C25_28 
REMARK    5  A    between atoms: C25_28  and  O4_29 
REMARK    6  A    between atoms: O4_29  and  C26_30 
REMARK    7  A    between atoms: C30_34  and  C31_36 
REMARK    8  A    between atoms: C31_36  and  O6_37 
REMARK    9  A    between atoms: O6_37  and  C32_38 
REMARK   10  A    between atoms: C35_41  and  O9_46 
REMARK   11  A    between atoms: C36_42  and  C37_44 
REMARK   12  A    between atoms: O9_46  and  C38_47 
ROOT
HETATM    1  C7  UNL     1       2.574   2.923  -6.068  1.00  0.00     0.118 C 
HETATM    2  C8  UNL     1       3.881   2.870  -5.231  1.00  0.00     0.025 C 
HETATM    3  C9  UNL     1       3.531   2.967  -3.717  1.00  0.00     0.006 C 
HETATM    4  C10 UNL     1       2.516   4.013  -3.228  1.00  0.00     0.015 C 
HETATM    5  C11 UNL     1       1.310   4.061  -4.193  1.00  0.00     0.006 C 
HETATM    6  C12 UNL     1       1.722   4.126  -5.669  1.00  0.00     0.030 C 
HETATM    7  C13 UNL     1       2.052   3.630  -1.803  1.00  0.00    -0.045 C 
HETATM    8  C14 UNL     1       2.797   2.597  -0.924  1.00  0.00     0.018 C 
HETATM    9  C15 UNL     1       4.275   2.997  -1.206  1.00  0.00     0.004 C 
HETATM   10  C16 UNL     1       4.692   2.879  -2.701  1.00  0.00     0.001 C 
HETATM   11  C17 UNL     1       2.326   2.603   0.618  1.00  0.00     0.018 C 
HETATM   12  C18 UNL     1       1.444   3.780   1.047  1.00  0.00    -0.044 C 
HETATM   13  C19 UNL     1       0.870   4.583   0.137  1.00  0.00    -0.009 C 
HETATM   14  C20 UNL     1       1.149   4.479  -1.274  1.00  0.00    -0.009 C 
HETATM   15  C21 UNL     1       0.951   3.847   2.487  1.00  0.00     0.027 C 
HETATM   16  C22 UNL     1      -0.082   2.709   2.657  1.00  0.00     0.082 C 
HETATM   17  C23 UNL     1       0.714   1.420   2.365  1.00  0.00     0.010 C 
HETATM   18  C24 UNL     1       1.386   1.407   0.978  1.00  0.00     0.004 C 
HETATM   19  C44 UNL     1      -0.611   2.678   4.106  1.00  0.00     0.010 C 
HETATM   20  C45 UNL     1      -1.084   4.047   4.618  1.00  0.00     0.001 C 
HETATM   21  C46 UNL     1      -0.017   5.156   4.489  1.00  0.00     0.000 C 
HETATM   22  C47 UNL     1       0.465   5.209   3.022  1.00  0.00     0.004 C 
HETATM   23  C48 UNL     1      -0.656   6.516   4.855  1.00  0.00     0.000 C 
HETATM   24  C49 UNL     1       1.156   4.922   5.465  1.00  0.00     0.000 C 
HETATM   25  C50 UNL     1       3.575   2.508   1.529  1.00  0.00     0.004 C 
HETATM   26  C51 UNL     1       2.726   1.111  -1.390  1.00  0.00     0.004 C 
HETATM   27  C52 UNL     1       3.144   5.430  -3.160  1.00  0.00     0.004 C 
HETATM   28  C53 UNL     1       4.598   1.521  -5.513  1.00  0.00     0.002 C 
HETATM   29  C54 UNL     1       4.875   3.946  -5.727  1.00  0.00     0.002 C 
ENDROOT
BRANCH  16  30
HETATM   30  C25 UNL     1      -1.286   2.873   1.710  1.00  0.00     0.273 C 
HETATM   31  O19 UNL     1      -1.780   3.937   1.411  1.00  0.00    -0.264 OA
BRANCH  30  32
HETATM   32  O4  UNL     1      -1.757   1.687   1.222  1.00  0.00    -0.273 OA
BRANCH  32  33
HETATM   33  C26 UNL     1      -2.813   1.748   0.282  1.00  0.00     0.276 C 
HETATM   34  C27 UNL     1      -2.335   2.044  -1.130  1.00  0.00     0.241 C 
HETATM   35  C28 UNL     1      -2.041   0.839  -2.008  1.00  0.00     0.220 C 
HETATM   36  O18 UNL     1      -3.303   2.845  -1.774  1.00  0.00    -0.215 OA
HETATM   37  C29 UNL     1      -2.960  -0.327  -1.713  1.00  0.00     0.215 C 
HETATM   38  O17 UNL     1      -0.707   0.429  -1.840  1.00  0.00    -0.218 OA
HETATM   39  C30 UNL     1      -3.159  -0.566  -0.227  1.00  0.00     0.180 C 
HETATM   40  O16 UNL     1      -4.211  -0.081  -2.315  1.00  0.00    -0.218 OA
HETATM   41  O5  UNL     1      -3.603   0.587   0.431  1.00  0.00    -0.326 OA
BRANCH  39  42
HETATM   42  C31 UNL     1      -1.998  -1.238   0.502  1.00  0.00     0.177 C 
BRANCH  42  43
HETATM   43  O6  UNL     1      -2.461  -1.625   1.776  1.00  0.00    -0.326 OA
BRANCH  43  44
HETATM   44  C32 UNL     1      -1.472  -2.116   2.650  1.00  0.00     0.270 C 
HETATM   45  C33 UNL     1      -1.986  -2.105   4.075  1.00  0.00     0.241 C 
HETATM   46  C34 UNL     1      -2.887  -3.280   4.403  1.00  0.00     0.217 C 
HETATM   47  O15 UNL     1      -0.893  -2.086   4.967  1.00  0.00    -0.215 OA
HETATM   48  C35 UNL     1      -2.278  -4.583   3.904  1.00  0.00     0.181 C 
HETATM   49  O14 UNL     1      -4.158  -3.080   3.834  1.00  0.00    -0.218 OA
HETATM   50  C36 UNL     1      -1.847  -4.473   2.441  1.00  0.00     0.181 C 
HETATM   51  O7  UNL     1      -1.016  -3.371   2.203  1.00  0.00    -0.326 OA
BRANCH  48  52
HETATM   52  O9  UNL     1      -1.162  -4.844   4.713  1.00  0.00    -0.326 OA
BRANCH  52  53
HETATM   53  C38 UNL     1      -0.731  -6.187   4.753  1.00  0.00     0.270 C 
HETATM   54  C39 UNL     1       0.782  -6.228   4.728  1.00  0.00     0.241 C 
HETATM   55  C40 UNL     1       1.364  -5.684   6.014  1.00  0.00     0.220 C 
HETATM   56  O13 UNL     1       1.233  -7.551   4.567  1.00  0.00    -0.215 OA
HETATM   57  C41 UNL     1       0.723  -6.381   7.196  1.00  0.00     0.212 C 
HETATM   58  O12 UNL     1       2.746  -5.941   6.042  1.00  0.00    -0.218 OA
HETATM   59  C42 UNL     1      -0.791  -6.256   7.128  1.00  0.00     0.151 C 
HETATM   60  O11 UNL     1       1.226  -5.785   8.368  1.00  0.00    -0.218 OA
HETATM   61  O10 UNL     1      -1.280  -6.771   5.916  1.00  0.00    -0.329 OA
HETATM   62  C43 UNL     1      -1.467  -7.021   8.267  1.00  0.00     0.035 C 
ENDBRANCH  52  53
ENDBRANCH  48  52
BRANCH  50  63
HETATM   63  C37 UNL     1      -2.963  -4.596   1.411  1.00  0.00     0.214 C 
HETATM   64  O8  UNL     1      -3.503  -5.902   1.460  1.00  0.00    -0.218 OA
ENDBRANCH  50  63
ENDBRANCH  43  44
ENDBRANCH  42  43
ENDBRANCH  39  42
ENDBRANCH  32  33
ENDBRANCH  30  32
ENDBRANCH  16  30
BRANCH   1  65
HETATM   65  O3  UNL     1       1.804   1.756  -5.870  1.00  0.00    -0.332 OA
BRANCH  65  66
HETATM   66  C4  UNL     1       1.487   1.023  -7.033  1.00  0.00     0.270 C 
HETATM   67  C3  UNL     1       1.310  -0.447  -6.706  1.00  0.00     0.241 C 
HETATM   68  C2  UNL     1      -0.074  -0.817  -6.215  1.00  0.00     0.220 C 
HETATM   69  O20 UNL     1       1.631  -1.221  -7.841  1.00  0.00    -0.215 OA
HETATM   70  C1  UNL     1      -1.129  -0.177  -7.093  1.00  0.00     0.215 C 
HETATM   71  O21 UNL     1      -0.234  -0.397  -4.878  1.00  0.00    -0.218 OA
HETATM   72  C5  UNL     1      -0.905   1.315  -7.270  1.00  0.00     0.184 C 
HETATM   73  O22 UNL     1      -1.145  -0.798  -8.358  1.00  0.00    -0.218 OA
HETATM   74  O1  UNL     1       0.397   1.641  -7.689  1.00  0.00    -0.326 OA
BRANCH  72  75
HETATM   75  C6  UNL     1      -1.395   2.127  -6.078  1.00  0.00     0.214 C 
HETATM   76  O2  UNL     1      -1.604   3.475  -6.447  1.00  0.00    -0.218 OA
ENDBRANCH  72  75
ENDBRANCH  65  66
ENDBRANCH   1  65
TORSDOF 12
