REMARK  1 active torsions:
REMARK  status: ('A' for Active; 'I' for Inactive)
REMARK    1  A    between atoms: C6_6  and  O1_7 
ROOT
HETATM    1  C1  UNL     1      -0.718   1.614  -0.285  1.00  0.00     0.048 A 
HETATM    2  C2  UNL     1      -0.765   0.271  -0.316  1.00  0.00     0.096 A 
HETATM    3  C3  UNL     1       0.408  -0.383  -0.386  1.00  0.00     0.056 A 
HETATM    4  C4  UNL     1       1.582   0.281  -0.430  1.00  0.00     0.105 A 
HETATM    5  C5  UNL     1       1.570   1.631  -0.410  1.00  0.00     0.045 A 
HETATM    6  C6  UNL     1       0.417   2.335  -0.341  1.00  0.00     0.098 A 
HETATM    7  C8  UNL     1       2.753   2.275  -0.455  1.00  0.00     0.009 A 
HETATM    8  C9  UNL     1       3.917   1.613  -0.512  1.00  0.00     0.069 A 
HETATM    9  C10 UNL     1       3.909   0.259  -0.528  1.00  0.00     0.300 A 
HETATM   10  O2  UNL     1       2.743  -0.443  -0.490  1.00  0.00    -0.273 OA
HETATM   11  O3  UNL     1       4.966  -0.336  -0.572  1.00  0.00    -0.259 OA
HETATM   12  C11 UNL     1       0.419  -1.893  -0.422  1.00  0.00     0.211 C 
HETATM   13  C12 UNL     1      -0.974  -2.490  -0.424  1.00  0.00     0.212 C 
HETATM   14  C13 UNL     1      -1.977  -1.637   0.344  1.00  0.00     0.129 C 
HETATM   15  O4  UNL     1      -1.979  -0.359  -0.211  1.00  0.00    -0.333 OA
HETATM   16  C14 UNL     1      -3.398  -2.196   0.166  1.00  0.00     0.033 C 
HETATM   17  C15 UNL     1      -1.681  -1.538   1.848  1.00  0.00     0.033 C 
HETATM   18  O5  UNL     1      -0.901  -3.793   0.105  1.00  0.00    -0.218 OA
HETATM   19  O6  UNL     1       1.129  -2.378   0.700  1.00  0.00    -0.216 OA
ENDROOT
BRANCH   6  20
HETATM   20  O1  UNL     1       0.451   3.711  -0.324  1.00  0.00    -0.328 OA
HETATM   21  C7  UNL     1      -0.756   4.437  -0.286  1.00  0.00     0.181 C 
ENDBRANCH   6  20
TORSDOF 1
