REMARK  1 active torsions:
REMARK  status: ('A' for Active; 'I' for Inactive)
REMARK    1  A    between atoms: C13_14  and  C15_16 
ROOT
HETATM    1  C1  UNL     1      -2.312   0.069  -0.776  1.00  0.00     0.172 C 
HETATM    2  C2  UNL     1      -2.415  -1.242  -0.097  1.00  0.00     0.029 C 
HETATM    3  C3  UNL     1      -1.335  -1.915   0.341  1.00  0.00    -0.041 C 
HETATM    4  C4  UNL     1       0.069  -1.377   0.172  1.00  0.00     0.019 C 
HETATM    5  C5  UNL     1       0.096   0.162   0.092  1.00  0.00     0.020 C 
HETATM    6  C6  UNL     1      -0.932   0.684  -0.928  1.00  0.00     0.070 C 
HETATM    7  C7  UNL     1       1.559   0.684  -0.024  1.00  0.00     0.081 C 
HETATM    8  C8  UNL     1       2.389  -0.020  -1.136  1.00  0.00     0.009 C 
HETATM    9  C9  UNL     1       2.233  -1.554  -1.095  1.00  0.00     0.001 C 
HETATM   10  C10 UNL     1       0.767  -1.999  -1.046  1.00  0.00     0.004 C 
HETATM   11  C11 UNL     1       2.212   0.493  -2.578  1.00  0.00     0.001 C 
HETATM   12  C12 UNL     1       1.613   2.199  -0.213  1.00  0.00     0.271 C 
HETATM   13  O1  UNL     1       2.409   2.778   0.718  1.00  0.00    -0.300 OA
HETATM   14  C13 UNL     1       2.934   1.861   1.636  1.00  0.00     0.149 C 
HETATM   15  C14 UNL     1       2.280   0.521   1.338  1.00  0.00     0.044 C 
HETATM   16  O3  UNL     1       1.053   2.831  -1.082  1.00  0.00    -0.264 OA
HETATM   17  C19 UNL     1      -1.467  -3.266   1.003  1.00  0.00     0.026 C 
HETATM   18  O4  UNL     1      -3.312   0.632  -1.205  1.00  0.00    -0.291 OA
ENDROOT
BRANCH  14  19
HETATM   19  C15 UNL     1       4.436   1.809   1.572  1.00  0.00     0.032 A 
HETATM   20  C16 UNL     1       5.285   1.614   2.621  1.00  0.00     0.121 A 
HETATM   21  O2  UNL     1       6.584   1.628   2.209  1.00  0.00    -0.303 OA
HETATM   22  C17 UNL     1       6.553   1.841   0.863  1.00  0.00     0.122 A 
HETATM   23  C18 UNL     1       5.272   1.958   0.417  1.00  0.00     0.027 A 
ENDBRANCH  14  19
TORSDOF 1
