REMARK  5 active torsions:
REMARK  status: ('A' for Active; 'I' for Inactive)
REMARK    1  A    between atoms: C4_4  and  O2_16 
REMARK    2  A    between atoms: C9_9  and  C10_10 
REMARK    3  A    between atoms: C11_11  and  C12_12 
REMARK    4  A    between atoms: O2_16  and  C15_17 
REMARK    5  A    between atoms: C16_19  and  C20_26 
ROOT
HETATM    1  C1  UNL     1       3.067  -2.194   2.459  1.00  0.00     0.037 C 
HETATM    2  C2  UNL     1       2.462  -1.368   3.588  1.00  0.00     0.155 C 
HETATM    3  C3  UNL     1       1.695  -0.152   3.073  1.00  0.00     0.064 C 
HETATM    4  C4  UNL     1       0.695  -0.410   1.931  1.00  0.00     0.113 C 
HETATM    5  C5  UNL     1       1.389  -1.289   0.875  1.00  0.00    -0.021 C 
HETATM    6  C6  UNL     1       2.119  -2.579   1.292  1.00  0.00     0.020 C 
HETATM    7  C7  UNL     1       3.089  -3.110   0.193  1.00  0.00     0.004 C 
HETATM    8  C8  UNL     1       1.212  -3.773   1.644  1.00  0.00     0.004 C 
HETATM    9  C9  UNL     1       1.582  -0.840  -0.391  1.00  0.00    -0.006 C 
HETATM   10  C14 UNL     1      -0.560  -1.113   2.479  1.00  0.00     0.034 C 
HETATM   11  O8  UNL     1       1.663  -2.171   4.420  1.00  0.00    -0.223 OA
ENDROOT
BRANCH   4  12
HETATM   12  O2  UNL     1       0.289   0.896   1.518  1.00  0.00    -0.330 OA
BRANCH  12  13
HETATM   13  C15 UNL     1      -0.680   1.028   0.484  1.00  0.00     0.270 C 
HETATM   14  O3  UNL     1      -0.048   1.861  -0.477  1.00  0.00    -0.326 OA
HETATM   15  C16 UNL     1      -0.776   2.000  -1.668  1.00  0.00     0.184 C 
HETATM   16  C17 UNL     1      -2.111   2.668  -1.367  1.00  0.00     0.215 C 
HETATM   17  C18 UNL     1      -2.836   1.924  -0.264  1.00  0.00     0.220 C 
HETATM   18  O6  UNL     1      -2.933   2.680  -2.508  1.00  0.00    -0.218 OA
HETATM   19  C19 UNL     1      -1.916   1.784   0.934  1.00  0.00     0.241 C 
HETATM   20  O5  UNL     1      -3.987   2.641   0.100  1.00  0.00    -0.218 OA
HETATM   21  O4  UNL     1      -2.618   1.111   1.944  1.00  0.00    -0.215 OA
BRANCH  15  22
HETATM   22  C20 UNL     1       0.067   2.808  -2.653  1.00  0.00     0.214 C 
HETATM   23  O7  UNL     1       0.145   2.150  -3.903  1.00  0.00    -0.218 OA
ENDBRANCH  15  22
ENDBRANCH  12  13
ENDBRANCH   4  12
BRANCH   9  24
HETATM   24  C10 UNL     1       1.097  -1.659  -1.501  1.00  0.00     0.002 C 
HETATM   25  C11 UNL     1       0.917  -1.120  -2.732  1.00  0.00     0.037 C 
BRANCH  25  26
HETATM   26  C12 UNL     1       0.212  -1.844  -3.812  1.00  0.00     0.173 C 
HETATM   27  C13 UNL     1       0.181  -1.167  -5.168  1.00  0.00     0.077 C 
HETATM   28  O1  UNL     1      -0.353  -2.914  -3.624  1.00  0.00    -0.291 OA
ENDBRANCH  25  26
ENDBRANCH   9  24
TORSDOF 5
