REMARK  3 active torsions:
REMARK  status: ('A' for Active; 'I' for Inactive)
REMARK    1  A    between atoms: C3_3  and  O3_8 
REMARK    2  A    between atoms: C7_10  and  O5_15 
REMARK    3  A    between atoms: O5_15  and  C11_16 
ROOT
HETATM    1  C1  UNL     1       0.086   1.473  -0.305  1.00  0.00     0.192 C 
HETATM    2  C2  UNL     1      -0.092  -0.045  -0.356  1.00  0.00     0.229 C 
HETATM    3  C3  UNL     1      -1.074  -0.499   0.718  1.00  0.00     0.271 C 
HETATM    4  O1  UNL     1      -2.302   0.197   0.660  1.00  0.00    -0.302 OA
HETATM    5  C4  UNL     1      -2.193   1.586   0.828  1.00  0.00     0.274 C 
HETATM    6  C5  UNL     1      -1.230   2.221  -0.147  1.00  0.00     0.100 C 
HETATM    7  O2  UNL     1      -1.818   1.779   2.176  1.00  0.00    -0.190 OA
HETATM    8  C7  UNL     1       1.344  -0.616  -0.202  1.00  0.00     0.137 C 
HETATM    9  C8  UNL     1       2.074   0.505   0.601  1.00  0.00     0.066 C 
HETATM   10  C9  UNL     1       1.084   1.646   0.820  1.00  0.00     0.185 C 
HETATM   11  O4  UNL     1       1.711   2.902   0.737  1.00  0.00    -0.221 OA
HETATM   12  C10 UNL     1       1.535  -1.912   0.600  1.00  0.00     0.033 C 
HETATM   13  O7  UNL     1      -0.677  -0.397  -1.583  1.00  0.00    -0.216 OA
HETATM   14  O8  UNL     1       0.709   1.939  -1.479  1.00  0.00    -0.220 OA
ENDROOT
BRANCH   8  15
HETATM   15  O5  UNL     1       2.019  -0.650  -1.429  1.00  0.00    -0.304 OA
BRANCH  15  16
HETATM   16  C11 UNL     1       1.981  -1.596  -2.409  1.00  0.00     0.272 C 
HETATM   17  O6  UNL     1       2.646  -1.480  -3.418  1.00  0.00    -0.264 OA
HETATM   18  C12 UNL     1       1.120  -2.833  -2.230  1.00  0.00     0.106 C 
ENDBRANCH  15  16
ENDBRANCH   8  15
BRANCH   3  19
HETATM   19  O3  UNL     1      -1.471  -1.825   0.423  1.00  0.00    -0.326 OA
HETATM   20  C6  UNL     1      -2.024  -2.506   1.527  1.00  0.00     0.177 C 
ENDBRANCH   3  19
TORSDOF 3
