REMARK  2 active torsions:
REMARK  status: ('A' for Active; 'I' for Inactive)
REMARK    1  A    between atoms: C11_12  and  C13_14 
REMARK    2  A    between atoms: C13_14  and  O1_15 
ROOT
HETATM    1  C1  UNL     1      -5.193  -0.928   0.187  1.00  0.00     0.028 A 
HETATM    2  C2  UNL     1      -5.073  -2.341   0.112  1.00  0.00     0.133 A 
HETATM    3  C3  UNL     1      -3.807  -2.906   0.045  1.00  0.00     0.046 A 
HETATM    4  C4  UNL     1      -2.680  -2.061   0.055  1.00  0.00     0.084 A 
HETATM    5  C5  UNL     1      -2.818  -0.670   0.138  1.00  0.00     0.019 A 
HETATM    6  C6  UNL     1      -4.095  -0.083   0.203  1.00  0.00     0.004 A 
HETATM    7  C7  UNL     1      -1.492  -0.106   0.123  1.00  0.00     0.021 A 
HETATM    8  C8  UNL     1      -0.591  -1.177   0.033  1.00  0.00     0.107 A 
HETATM    9  N1  UNL     1      -1.321  -2.357  -0.007  1.00  0.00    -0.243 NA
HETATM   10  C9  UNL     1       0.804  -0.969  -0.000  1.00  0.00     0.149 A 
HETATM   11  C10 UNL     1       1.221   0.353   0.057  1.00  0.00     0.034 A 
HETATM   12  C11 UNL     1       0.330   1.463   0.154  1.00  0.00     0.065 A 
HETATM   13  C12 UNL     1      -1.041   1.224   0.204  1.00  0.00     0.007 A 
HETATM   14  O3  UNL     1       1.687  -1.998  -0.081  1.00  0.00    -0.189 OA
HETATM   15  O4  UNL     1      -6.177  -3.135   0.101  1.00  0.00    -0.190 OA
ENDROOT
BRANCH  12  16
HETATM   16  C13 UNL     1       0.928   2.836   0.230  1.00  0.00     0.296 C 
HETATM   17  O2  UNL     1       2.099   2.860   0.610  1.00  0.00    -0.259 OA
BRANCH  16  18
HETATM   18  O1  UNL     1       0.357   4.048  -0.052  1.00  0.00    -0.296 OA
HETATM   19  C14 UNL     1      -0.929   4.170  -0.602  1.00  0.00     0.185 C 
ENDBRANCH  16  18
ENDBRANCH  12  16
TORSDOF 2
