REMARK  4 active torsions:
REMARK  status: ('A' for Active; 'I' for Inactive)
REMARK    1  A    between atoms: C9_10  and  C14_17 
REMARK    2  A    between atoms: C11_12  and  C13_14 
REMARK    3  A    between atoms: C14_17  and  C15_18 
REMARK    4  A    between atoms: C15_18  and  C16_20 
ROOT
HETATM    1  C1  UNL     1      -5.155   1.091  -0.382  1.00  0.00     0.028 A 
HETATM    2  C2  UNL     1      -5.147  -0.295  -0.684  1.00  0.00     0.133 A 
HETATM    3  C3  UNL     1      -3.931  -0.937  -0.875  1.00  0.00     0.046 A 
HETATM    4  C4  UNL     1      -2.741  -0.192  -0.762  1.00  0.00     0.083 A 
HETATM    5  C5  UNL     1      -2.769   1.174  -0.458  1.00  0.00     0.019 A 
HETATM    6  C6  UNL     1      -3.994   1.839  -0.263  1.00  0.00     0.004 A 
HETATM    7  C7  UNL     1      -1.403   1.627  -0.427  1.00  0.00     0.019 A 
HETATM    8  C8  UNL     1      -0.582   0.527  -0.711  1.00  0.00     0.079 A 
HETATM    9  N1  UNL     1      -1.410  -0.572  -0.912  1.00  0.00    -0.246 NA
HETATM   10  C9  UNL     1       0.825   0.644  -0.773  1.00  0.00     0.024 A 
HETATM   11  C10 UNL     1       1.393   1.899  -0.548  1.00  0.00     0.132 A 
HETATM   12  C11 UNL     1       0.546   3.014  -0.258  1.00  0.00     0.067 A 
HETATM   13  C12 UNL     1      -0.842   2.889  -0.193  1.00  0.00     0.007 A 
HETATM   14  O2  UNL     1       2.744   2.036  -0.643  1.00  0.00    -0.190 OA
HETATM   15  O5  UNL     1      -6.311  -0.989  -0.793  1.00  0.00    -0.190 OA
ENDROOT
BRANCH  10  16
HETATM   16  C14 UNL     1       1.652  -0.572  -1.133  1.00  0.00     0.066 C 
BRANCH  16  17
HETATM   17  C15 UNL     1       1.651  -1.694  -0.090  1.00  0.00     0.184 C 
HETATM   18  O3  UNL     1       2.218  -2.841  -0.687  1.00  0.00    -0.221 OA
BRANCH  17  19
HETATM   19  C16 UNL     1       2.401  -1.460   1.222  1.00  0.00     0.155 C 
HETATM   20  C17 UNL     1       1.655  -0.516   2.167  1.00  0.00     0.036 C 
HETATM   21  C18 UNL     1       3.846  -0.997   1.028  1.00  0.00     0.036 C 
HETATM   22  O4  UNL     1       2.457  -2.713   1.858  1.00  0.00    -0.223 OA
ENDBRANCH  17  19
ENDBRANCH  16  17
ENDBRANCH  10  16
BRANCH  12  23
HETATM   23  C13 UNL     1       1.100   4.368  -0.009  1.00  0.00     0.236 C 
HETATM   24  O1  UNL     1       2.291   4.646   0.009  1.00  0.00    -0.283 OA
ENDBRANCH  12  23
TORSDOF 4
