REMARK  2 active torsions:
REMARK  status: ('A' for Active; 'I' for Inactive)
REMARK    1  A    between atoms: C9_10  and  O2_16 
REMARK    2  A    between atoms: C11_12  and  C13_14 
ROOT
HETATM    1  C1  UNL     1      -3.846   0.161   0.014  1.00  0.00     0.028 A 
HETATM    2  C2  UNL     1      -3.760  -1.256   0.009  1.00  0.00     0.133 A 
HETATM    3  C3  UNL     1      -2.507  -1.855  -0.002  1.00  0.00     0.046 A 
HETATM    4  C4  UNL     1      -1.359  -1.038  -0.009  1.00  0.00     0.084 A 
HETATM    5  C5  UNL     1      -1.466   0.357  -0.002  1.00  0.00     0.019 A 
HETATM    6  C6  UNL     1      -2.729   0.979   0.007  1.00  0.00     0.004 A 
HETATM    7  C7  UNL     1      -0.128   0.888  -0.004  1.00  0.00     0.021 A 
HETATM    8  C8  UNL     1       0.759  -0.200  -0.013  1.00  0.00     0.103 A 
HETATM    9  N1  UNL     1      -0.004  -1.363  -0.017  1.00  0.00    -0.243 NA
HETATM   10  C9  UNL     1       2.168  -0.053  -0.014  1.00  0.00     0.112 A 
HETATM   11  C10 UNL     1       2.608   1.268  -0.001  1.00  0.00     0.029 A 
HETATM   12  C11 UNL     1       1.726   2.384   0.010  1.00  0.00     0.044 A 
HETATM   13  C12 UNL     1       0.345   2.209   0.006  1.00  0.00     0.005 A 
HETATM   14  O3  UNL     1      -4.885  -2.018   0.021  1.00  0.00    -0.190 OA
ENDROOT
BRANCH  10  15
HETATM   15  O2  UNL     1       2.963  -1.171  -0.026  1.00  0.00    -0.327 OA
HETATM   16  C14 UNL     1       4.362  -0.996  -0.027  1.00  0.00     0.181 C 
ENDBRANCH  10  15
BRANCH  12  17
HETATM   17  C13 UNL     1       2.277   3.758   0.026  1.00  0.00     0.234 C 
HETATM   18  O1  UNL     1       3.474   4.010   0.037  1.00  0.00    -0.283 OA
ENDBRANCH  12  17
TORSDOF 2
