REMARK  1 active torsions:
REMARK  status: ('A' for Active; 'I' for Inactive)
REMARK    1  A    between atoms: C7_8  and  O5_21 
ROOT
HETATM    1  C1  UNL     1      -3.371   0.722  -1.293  1.00  0.00     0.029 A 
HETATM    2  C2  UNL     1      -3.369  -0.663  -1.350  1.00  0.00     0.029 A 
HETATM    3  C3  UNL     1      -2.213  -1.387  -1.061  1.00  0.00     0.129 A 
HETATM    4  C4  UNL     1      -1.024  -0.718  -0.690  1.00  0.00     0.034 A 
HETATM    5  C5  UNL     1      -1.018   0.703  -0.683  1.00  0.00     0.034 A 
HETATM    6  C6  UNL     1      -2.204   1.412  -0.974  1.00  0.00     0.130 A 
HETATM    7  O1  UNL     1      -2.261   2.772  -0.988  1.00  0.00    -0.190 OA
HETATM    8  C7  UNL     1       0.213   1.588  -0.469  1.00  0.00     0.158 C 
HETATM    9  C8  UNL     1       0.917   1.494   0.874  1.00  0.00    -0.017 C 
HETATM   10  C9  UNL     1       0.382   0.834   1.916  1.00  0.00    -0.032 C 
HETATM   11  C10 UNL     1       1.175   0.348   3.106  1.00  0.00     0.029 C 
HETATM   12  C11 UNL     1       2.167  -0.722   2.596  1.00  0.00     0.044 C 
HETATM   13  C12 UNL     1       1.517  -1.635   1.574  1.00  0.00     0.198 A 
HETATM   14  C13 UNL     1       1.470  -1.220   0.203  1.00  0.00     0.182 A 
HETATM   15  C14 UNL     1       0.113  -1.684  -0.303  1.00  0.00     0.178 C 
HETATM   16  O2  UNL     1      -0.397  -2.502   0.759  1.00  0.00    -0.295 OA
HETATM   17  C15 UNL     1       0.355  -2.439   1.891  1.00  0.00     0.299 C 
HETATM   18  O3  UNL     1       0.084  -2.951   2.954  1.00  0.00    -0.262 OA
HETATM   19  O4  UNL     1       2.401  -2.259   0.415  1.00  0.00    -0.344 OA
HETATM   20  C16 UNL     1       2.278   2.156   0.926  1.00  0.00     0.029 C 
HETATM   21  O6  UNL     1      -2.298  -2.746  -1.139  1.00  0.00    -0.190 OA
ENDROOT
BRANCH   8  22
HETATM   22  O5  UNL     1       1.123   1.395  -1.547  1.00  0.00    -0.345 OA
HETATM   23  C17 UNL     1       0.666   1.928  -2.771  1.00  0.00     0.175 C 
ENDBRANCH   8  22
TORSDOF 1
