REMARK  4 active torsions:
REMARK  status: ('A' for Active; 'I' for Inactive)
REMARK    1  A    between atoms: C7_7  and  C12_12 
REMARK    2  A    between atoms: C12_12  and  C13_13 
REMARK    3  A    between atoms: C13_13  and  C14_14 
REMARK    4  A    between atoms: C14_14  and  C15_15 
ROOT
HETATM    1  C1  UNL     1      -1.294  -1.020   2.341  1.00  0.00     0.035 C 
HETATM    2  C2  UNL     1      -2.591  -0.961   1.556  1.00  0.00     0.180 C 
HETATM    3  C3  UNL     1      -2.965   0.470   1.147  1.00  0.00     0.154 C 
HETATM    4  C4  UNL     1      -1.710   1.326   0.720  1.00  0.00     0.028 C 
HETATM    5  C5  UNL     1      -0.540   0.390   0.291  1.00  0.00     0.003 C 
HETATM    6  C6  UNL     1      -0.132  -0.557   1.446  1.00  0.00     0.003 C 
HETATM    7  C7  UNL     1       0.676   0.962  -0.535  1.00  0.00     0.000 C 
HETATM    8  C8  UNL     1       0.135   1.915  -1.651  1.00  0.00     0.000 C 
HETATM    9  C9  UNL     1      -0.890   2.936  -1.121  1.00  0.00     0.000 C 
HETATM   10  C10 UNL     1      -2.086   2.232  -0.479  1.00  0.00     0.002 C 
HETATM   11  C11 UNL     1       1.204   2.706  -2.439  1.00  0.00     0.000 C 
HETATM   12  C18 UNL     1       1.718   1.742   0.300  1.00  0.00     0.000 C 
HETATM   13  C19 UNL     1      -1.262   2.248   1.882  1.00  0.00     0.003 C 
HETATM   14  C20 UNL     1      -3.841   1.162   2.205  1.00  0.00     0.036 C 
HETATM   15  O2  UNL     1      -3.836   0.275   0.057  1.00  0.00    -0.223 OA
HETATM   16  O3  UNL     1      -3.637  -1.557   2.285  1.00  0.00    -0.221 OA
ENDROOT
BRANCH   7  17
HETATM   17  C12 UNL     1       1.400  -0.241  -1.241  1.00  0.00     0.003 C 
BRANCH  17  18
HETATM   18  C13 UNL     1       2.654  -0.845  -0.573  1.00  0.00     0.035 C 
BRANCH  18  19
HETATM   19  C14 UNL     1       3.154  -2.163  -1.190  1.00  0.00     0.145 C 
HETATM   20  O1  UNL     1       2.156  -3.145  -1.001  1.00  0.00    -0.222 OA
HETATM   21  C17 UNL     1       3.431  -2.039  -2.691  1.00  0.00     0.038 C 
BRANCH  19  22
HETATM   22  C15 UNL     1       4.410  -2.631  -0.481  1.00  0.00     0.003 C 
HETATM   23  C16 UNL     1       4.973  -3.834  -0.668  1.00  0.00    -0.002 C 
ENDBRANCH  19  22
ENDBRANCH  18  19
ENDBRANCH  17  18
ENDBRANCH   7  17
TORSDOF 4
