REMARK  6 active torsions:
REMARK  status: ('A' for Active; 'I' for Inactive)
REMARK    1  A    between atoms: C4_4  and  C7_7 
REMARK    2  A    between atoms: C7_7  and  C8_8 
REMARK    3  A    between atoms: C10_11  and  C19_22 
REMARK    4  A    between atoms: C12_13  and  C14_16 
REMARK    5  A    between atoms: C14_16  and  C15_17 
REMARK    6  A    between atoms: C19_22  and  C20_23 
ROOT
HETATM    1  C8  UNL     1      -0.587   0.817   0.750  1.00  0.00     0.089 A 
HETATM    2  C9  UNL     1      -1.252  -0.345   1.162  1.00  0.00     0.134 A 
HETATM    3  O1  UNL     1      -1.897  -0.404   2.358  1.00  0.00    -0.190 OA
HETATM    4  C10 UNL     1      -1.280  -1.447   0.292  1.00  0.00     0.033 A 
HETATM    5  C11 UNL     1      -0.590  -1.406  -0.924  1.00  0.00     0.128 A 
HETATM    6  C12 UNL     1       0.080  -0.232  -1.320  1.00  0.00     0.033 A 
HETATM    7  C13 UNL     1       0.061   0.901  -0.495  1.00  0.00     0.134 A 
HETATM    8  O2  UNL     1       0.586   2.082  -0.925  1.00  0.00    -0.190 OA
HETATM    9  O3  UNL     1      -0.644  -2.473  -1.770  1.00  0.00    -0.191 OA
ENDROOT
BRANCH   1  10
HETATM   10  C7  UNL     1      -0.624   2.016   1.659  1.00  0.00     0.200 C 
HETATM   11  O4  UNL     1      -1.676   2.380   2.166  1.00  0.00    -0.286 OA
BRANCH  10  12
HETATM   12  C4  UNL     1       0.615   2.838   1.813  1.00  0.00     0.039 A 
HETATM   13  C3  UNL     1       1.889   2.269   1.679  1.00  0.00     0.003 A 
HETATM   14  C2  UNL     1       3.025   3.075   1.764  1.00  0.00     0.000 A 
HETATM   15  C1  UNL     1       2.899   4.453   1.969  1.00  0.00     0.000 A 
HETATM   16  C6  UNL     1       1.634   5.022   2.100  1.00  0.00     0.000 A 
HETATM   17  C5  UNL     1       0.492   4.217   2.018  1.00  0.00     0.003 A 
ENDBRANCH  10  12
ENDBRANCH   1  10
BRANCH   4  18
HETATM   18  C19 UNL     1      -2.123  -2.660   0.649  1.00  0.00     0.056 C 
BRANCH  18  19
HETATM   19  C20 UNL     1      -1.700  -3.359   1.914  1.00  0.00    -0.030 C 
HETATM   20  C21 UNL     1      -2.495  -4.135   2.675  1.00  0.00    -0.048 C 
HETATM   21  C22 UNL     1      -1.985  -4.795   3.934  1.00  0.00     0.026 C 
HETATM   22  C23 UNL     1      -3.941  -4.443   2.360  1.00  0.00     0.026 C 
ENDBRANCH  18  19
ENDBRANCH   4  18
BRANCH   6  23
HETATM   23  C14 UNL     1       0.736  -0.204  -2.692  1.00  0.00     0.056 C 
BRANCH  23  24
HETATM   24  C15 UNL     1       1.923   0.707  -2.872  1.00  0.00    -0.030 C 
HETATM   25  C16 UNL     1       2.283   1.325  -4.012  1.00  0.00    -0.048 C 
HETATM   26  C17 UNL     1       3.502   2.217  -4.066  1.00  0.00     0.026 C 
HETATM   27  C18 UNL     1       1.556   1.195  -5.330  1.00  0.00     0.026 C 
ENDBRANCH  23  24
ENDBRANCH   6  23
TORSDOF 6
