REMARK  6 active torsions:
REMARK  status: ('A' for Active; 'I' for Inactive)
REMARK    1  A    between atoms: C3_3  and  C20_26 
REMARK    2  A    between atoms: C8_8  and  O1_12 
REMARK    3  A    between atoms: O1_12  and  C12_13 
REMARK    4  A    between atoms: C12_13  and  C13_14 
REMARK    5  A    between atoms: C13_14  and  C15_16 
REMARK    6  A    between atoms: C15_16  and  C16_17 
ROOT
HETATM    1  C1  UNL     1      -3.077   0.539   1.004  1.00  0.00     0.030 C 
HETATM    2  C2  UNL     1      -3.382  -0.741   0.191  1.00  0.00     0.029 C 
HETATM    3  C3  UNL     1      -2.363  -1.810   0.534  1.00  0.00    -0.013 C 
HETATM    4  C4  UNL     1      -1.144  -1.731  -0.029  1.00  0.00    -0.002 C 
HETATM    5  C5  UNL     1       0.111  -2.392   0.471  1.00  0.00     0.150 C 
HETATM    6  C6  UNL     1       1.368  -1.522   0.226  1.00  0.00     0.062 C 
HETATM    7  C7  UNL     1       1.685  -0.456   1.294  1.00  0.00     0.042 C 
HETATM    8  C8  UNL     1       0.867   0.854   1.256  1.00  0.00     0.143 C 
HETATM    9  C9  UNL     1      -0.597   0.695   1.659  1.00  0.00    -0.021 C 
HETATM   10  C10 UNL     1      -1.623   0.923   0.814  1.00  0.00    -0.032 C 
HETATM   11  C11 UNL     1      -0.778   0.227   3.086  1.00  0.00     0.029 C 
HETATM   12  C17 UNL     1       2.406  -2.602   0.054  1.00  0.00     0.043 C 
HETATM   13  C18 UNL     1       1.643  -3.822  -0.265  1.00  0.00     0.292 C 
HETATM   14  O5  UNL     1       0.304  -3.673  -0.095  1.00  0.00    -0.296 OA
HETATM   15  O6  UNL     1       2.154  -4.860  -0.673  1.00  0.00    -0.259 OA
HETATM   16  C19 UNL     1       3.747  -2.532   0.108  1.00  0.00     0.001 C 
ENDROOT
BRANCH   8  17
HETATM   17  O1  UNL     1       1.057   1.428  -0.016  1.00  0.00    -0.297 OA
BRANCH  17  18
HETATM   18  C12 UNL     1       1.014   2.784  -0.159  1.00  0.00     0.294 C 
HETATM   19  O4  UNL     1       0.679   3.487   0.791  1.00  0.00    -0.259 OA
BRANCH  18  20
HETATM   20  C13 UNL     1       1.443   3.454  -1.421  1.00  0.00     0.073 C 
HETATM   21  C14 UNL     1       1.797   4.756  -1.340  1.00  0.00     0.004 C 
BRANCH  20  22
HETATM   22  C15 UNL     1       1.543   2.776  -2.774  1.00  0.00     0.212 C 
HETATM   23  O3  UNL     1       0.756   3.503  -3.705  1.00  0.00    -0.216 OA
BRANCH  22  24
HETATM   24  C16 UNL     1       1.180   1.306  -2.894  1.00  0.00     0.220 C 
HETATM   25  O2  UNL     1      -0.142   1.076  -2.448  1.00  0.00    -0.217 OA
ENDBRANCH  22  24
ENDBRANCH  20  22
ENDBRANCH  18  20
ENDBRANCH  17  18
ENDBRANCH   8  17
BRANCH   3  26
HETATM   26  C20 UNL     1      -2.732  -2.802   1.611  1.00  0.00     0.204 C 
HETATM   27  O7  UNL     1      -2.783  -2.208   2.898  1.00  0.00    -0.216 OA
ENDBRANCH   3  26
TORSDOF 6
