REMARK  5 active torsions:
REMARK  status: ('A' for Active; 'I' for Inactive)
REMARK    1  A    between atoms: C15_15  and  C18_18 
REMARK    2  A    between atoms: C18_18  and  C19_19 
REMARK    3  A    between atoms: C19_19  and  C20_20 
REMARK    4  A    between atoms: C20_20  and  C21_21 
REMARK    5  A    between atoms: C22_22  and  C23_23 
ROOT
HETATM    1  C1  UNL     1      -5.076  -0.667  -2.381  1.00  0.00     0.065 C 
HETATM    2  C2  UNL     1      -5.054  -1.794  -3.391  1.00  0.00     0.150 C 
HETATM    3  C3  UNL     1      -3.783  -2.649  -3.429  1.00  0.00     0.052 C 
HETATM    4  C4  UNL     1      -3.454  -3.134  -1.981  1.00  0.00     0.010 C 
HETATM    5  C5  UNL     1      -3.542  -2.072  -0.847  1.00  0.00     0.016 C 
HETATM    6  C6  UNL     1      -4.859  -1.266  -0.993  1.00  0.00     0.011 C 
HETATM    7  C7  UNL     1      -2.253  -1.241  -0.790  1.00  0.00    -0.049 C 
HETATM    8  C8  UNL     1      -0.947  -2.024  -0.701  1.00  0.00     0.018 C 
HETATM    9  C9  UNL     1      -0.882  -3.147  -1.750  1.00  0.00     0.004 C 
HETATM   10  C10 UNL     1      -2.168  -3.978  -1.833  1.00  0.00     0.001 C 
HETATM   11  C11 UNL     1       0.289  -1.088  -0.702  1.00  0.00     0.004 C 
HETATM   12  C12 UNL     1       0.059   0.094   0.291  1.00  0.00     0.004 C 
HETATM   13  C13 UNL     1      -1.049   0.951  -0.343  1.00  0.00     0.025 C 
HETATM   14  C14 UNL     1      -2.259   0.100  -0.652  1.00  0.00    -0.035 C 
HETATM   15  C15 UNL     1       1.471   0.732   0.413  1.00  0.00     0.000 C 
HETATM   16  C16 UNL     1       2.400  -0.509   0.367  1.00  0.00     0.000 C 
HETATM   17  C17 UNL     1       1.579  -1.711  -0.139  1.00  0.00     0.000 C 
HETATM   18  C26 UNL     1      -0.409  -0.352   1.701  1.00  0.00     0.000 C 
HETATM   19  C27 UNL     1       0.614  -0.629  -2.151  1.00  0.00     0.000 C 
HETATM   20  C28 UNL     1      -3.688  -2.749   0.547  1.00  0.00     0.004 C 
HETATM   21  C29 UNL     1      -4.052  -3.847  -4.373  1.00  0.00     0.007 C 
HETATM   22  C30 UNL     1      -2.718  -1.765  -4.106  1.00  0.00     0.007 C 
HETATM   23  O3  UNL     1      -5.988  -1.962  -4.142  1.00  0.00    -0.296 OA
ENDROOT
BRANCH  15  24
HETATM   24  C18 UNL     1       1.809   1.701   1.577  1.00  0.00     0.000 C 
HETATM   25  C25 UNL     1       0.869   2.921   1.598  1.00  0.00     0.000 C 
BRANCH  24  26
HETATM   26  C19 UNL     1       3.281   2.181   1.496  1.00  0.00     0.005 C 
BRANCH  26  27
HETATM   27  C20 UNL     1       3.768   2.938   2.747  1.00  0.00     0.026 C 
BRANCH  27  28
HETATM   28  C21 UNL     1       5.232   3.301   2.695  1.00  0.00    -0.024 C 
HETATM   29  C22 UNL     1       5.894   4.228   3.423  1.00  0.00     0.038 C 
HETATM   30  C24 UNL     1       7.365   4.487   3.178  1.00  0.00     0.037 C 
BRANCH  29  31
HETATM   31  C23 UNL     1       5.243   5.038   4.494  1.00  0.00     0.206 C 
HETATM   32  O1  UNL     1       5.862   6.000   4.941  1.00  0.00    -0.644 OA
HETATM   33  O2  UNL     1       4.033   4.740   5.015  1.00  0.00    -0.644 OA
ENDBRANCH  29  31
ENDBRANCH  27  28
ENDBRANCH  26  27
ENDBRANCH  24  26
ENDBRANCH  15  24
TORSDOF 5
