REMARK  5 active torsions:
REMARK  status: ('A' for Active; 'I' for Inactive)
REMARK    1  A    between atoms: C2_2  and  O4_19 
REMARK    2  A    between atoms: C7_7  and  C9_11 
REMARK    3  A    between atoms: C9_11  and  C10_12 
REMARK    4  A    between atoms: O4_19  and  C16_20 
REMARK    5  A    between atoms: C17_22  and  C21_29 
ROOT
HETATM    1  C1  UNL     1      -1.070  -1.569   0.723  1.00  0.00     0.039 C 
HETATM    2  C2  UNL     1       0.044  -0.724   0.084  1.00  0.00     0.142 C 
HETATM    3  C3  UNL     1      -0.391   0.724  -0.022  1.00  0.00     0.028 C 
HETATM    4  C4  UNL     1      -1.684   1.093   0.021  1.00  0.00     0.097 A 
HETATM    5  C5  UNL     1      -2.778   0.125   0.120  1.00  0.00     0.004 A 
HETATM    6  C6  UNL     1      -2.469  -1.344   0.124  1.00  0.00     0.031 C 
HETATM    7  C7  UNL     1      -3.958   0.792   0.185  1.00  0.00     0.073 A 
HETATM    8  C8  UNL     1      -3.657   2.243   0.121  1.00  0.00     0.298 A 
HETATM    9  O1  UNL     1      -2.124   2.410  -0.046  1.00  0.00    -0.274 OA
HETATM   10  O2  UNL     1      -4.451   3.169   0.217  1.00  0.00    -0.259 OA
ENDROOT
BRANCH   2  11
HETATM   11  O4  UNL     1       1.172  -0.857   0.922  1.00  0.00    -0.327 OA
BRANCH  11  12
HETATM   12  C16 UNL     1       2.377  -0.321   0.415  1.00  0.00     0.270 C 
HETATM   13  O5  UNL     1       3.205  -1.436   0.153  1.00  0.00    -0.326 OA
HETATM   14  C17 UNL     1       4.490  -1.067  -0.286  1.00  0.00     0.184 C 
HETATM   15  C18 UNL     1       5.182  -0.209   0.769  1.00  0.00     0.215 C 
HETATM   16  C19 UNL     1       4.344   1.014   1.075  1.00  0.00     0.220 C 
HETATM   17  O8  UNL     1       6.438   0.238   0.321  1.00  0.00    -0.218 OA
HETATM   18  C20 UNL     1       2.978   0.537   1.504  1.00  0.00     0.241 C 
HETATM   19  O7  UNL     1       4.938   1.748   2.115  1.00  0.00    -0.218 OA
HETATM   20  O6  UNL     1       2.151   1.650   1.730  1.00  0.00    -0.215 OA
BRANCH  14  21
HETATM   21  C21 UNL     1       5.287  -2.331  -0.576  1.00  0.00     0.214 C 
HETATM   22  O9  UNL     1       4.730  -3.008  -1.686  1.00  0.00    -0.218 OA
ENDBRANCH  14  21
ENDBRANCH  11  12
ENDBRANCH   2  11
BRANCH   7  23
HETATM   23  C9  UNL     1      -5.372   0.286   0.282  1.00  0.00     0.202 C 
HETATM   24  O3  UNL     1      -5.447  -1.122   0.449  1.00  0.00    -0.213 OA
BRANCH  23  25
HETATM   25  C10 UNL     1      -6.166   0.709  -0.932  1.00  0.00     0.012 A 
HETATM   26  C11 UNL     1      -7.224   1.618  -0.823  1.00  0.00    -0.002 A 
HETATM   27  C12 UNL     1      -7.950   2.012  -1.949  1.00  0.00    -0.000 A 
HETATM   28  C13 UNL     1      -7.623   1.498  -3.205  1.00  0.00    -0.000 A 
HETATM   29  C14 UNL     1      -6.567   0.594  -3.327  1.00  0.00    -0.000 A 
HETATM   30  C15 UNL     1      -5.844   0.205  -2.197  1.00  0.00    -0.002 A 
ENDBRANCH  23  25
ENDBRANCH   7  23
TORSDOF 5
