REMARK  2 active torsions:
REMARK  status: ('A' for Active; 'I' for Inactive)
REMARK    1  A    between atoms: C7_7  and  C9_11 
REMARK    2  A    between atoms: C9_11  and  C10_12 
ROOT
HETATM    1  C1  UNL     1       2.183  -1.989   0.025  1.00  0.00     0.042 C 
HETATM    2  C2  UNL     1       3.263  -1.442  -0.910  1.00  0.00     0.176 C 
HETATM    3  C3  UNL     1       3.057   0.022  -1.195  1.00  0.00     0.031 C 
HETATM    4  C4  UNL     1       1.825   0.562  -1.150  1.00  0.00     0.097 A 
HETATM    5  C5  UNL     1       0.638  -0.240  -0.843  1.00  0.00     0.004 A 
HETATM    6  C6  UNL     1       0.763  -1.695  -0.488  1.00  0.00     0.031 C 
HETATM    7  C7  UNL     1      -0.463   0.546  -0.933  1.00  0.00     0.073 A 
HETATM    8  C8  UNL     1      -0.014   1.913  -1.286  1.00  0.00     0.298 A 
HETATM    9  O1  UNL     1       1.531   1.891  -1.431  1.00  0.00    -0.274 OA
HETATM   10  O2  UNL     1      -0.714   2.906  -1.433  1.00  0.00    -0.259 OA
HETATM   11  O4  UNL     1       4.535  -1.633  -0.316  1.00  0.00    -0.218 OA
ENDROOT
BRANCH   7  12
HETATM   12  C9  UNL     1      -1.909   0.204  -0.707  1.00  0.00     0.202 C 
HETATM   13  O3  UNL     1      -2.127  -1.201  -0.695  1.00  0.00    -0.213 OA
BRANCH  12  14
HETATM   14  C10 UNL     1      -2.414   0.834   0.569  1.00  0.00     0.012 A 
HETATM   15  C11 UNL     1      -3.504   1.713   0.556  1.00  0.00    -0.002 A 
HETATM   16  C12 UNL     1      -3.962   2.306   1.734  1.00  0.00    -0.000 A 
HETATM   17  C13 UNL     1      -3.331   2.027   2.947  1.00  0.00    -0.000 A 
HETATM   18  C14 UNL     1      -2.246   1.149   2.975  1.00  0.00    -0.000 A 
HETATM   19  C15 UNL     1      -1.796   0.556   1.793  1.00  0.00    -0.002 A 
ENDBRANCH  12  14
ENDBRANCH   7  12
TORSDOF 2
