REMARK  10 active torsions:
REMARK  status: ('A' for Active; 'I' for Inactive)
REMARK    1  A    between atoms: C4_4  and  C20_28 
REMARK    2  A    between atoms: C5_5  and  O2_8 
REMARK    3  A    between atoms: O2_8  and  C7_9 
REMARK    4  A    between atoms: C8_10  and  O7_19 
REMARK    5  A    between atoms: C11_13  and  C12_15 
REMARK    6  A    between atoms: O7_19  and  C13_20 
REMARK    7  A    between atoms: C13_20  and  C14_21 
REMARK    8  A    between atoms: C20_28  and  O9_29 
REMARK    9  A    between atoms: O9_29  and  C21_30 
REMARK   10  A    between atoms: C21_30  and  C22_31 
ROOT
HETATM    1  O2  UNL     1       0.810   0.854   0.634  1.00  0.00    -0.302 OA
ENDROOT
BRANCH   1   2
HETATM    2  C5  UNL     1       2.144   0.682   0.330  1.00  0.00     0.120 A 
HETATM    3  C4  UNL     1       2.688  -0.586   0.635  1.00  0.00     0.032 A 
HETATM    4  C3  UNL     1       4.035  -0.885   0.405  1.00  0.00     0.000 A 
HETATM    5  C2  UNL     1       4.882   0.058  -0.165  1.00  0.00     0.002 A 
HETATM    6  C1  UNL     1       4.343   1.286  -0.532  1.00  0.00     0.029 A 
HETATM    7  C6  UNL     1       3.003   1.615  -0.296  1.00  0.00     0.153 A 
HETATM    8  O1  UNL     1       2.610   2.840  -0.737  1.00  0.00    -0.188 OA
BRANCH   3   9
HETATM    9  C20 UNL     1       1.800  -1.702   1.167  1.00  0.00     0.180 C 
BRANCH   9  10
HETATM   10  O9  UNL     1       1.010  -2.151   0.086  1.00  0.00    -0.294 OA
BRANCH  10  11
HETATM   11  C21 UNL     1       0.165  -3.222   0.085  1.00  0.00     0.311 C 
HETATM   12  O12 UNL     1      -0.593  -3.403  -0.847  1.00  0.00    -0.261 OA
BRANCH  11  13
HETATM   13  C22 UNL     1       0.257  -4.295   1.190  1.00  0.00     0.272 C 
HETATM   14  C23 UNL     1      -0.499  -3.897   2.461  1.00  0.00     0.192 C 
HETATM   15  O10 UNL     1      -0.855  -2.766   2.689  1.00  0.00    -0.293 OA
HETATM   16  C24 UNL     1      -0.817  -5.033   3.414  1.00  0.00     0.073 C 
HETATM   17  C25 UNL     1      -1.748  -6.021   2.704  1.00  0.00     0.034 C 
HETATM   18  C26 UNL     1      -1.231  -6.345   1.329  1.00  0.00    -0.027 C 
HETATM   19  C27 UNL     1      -0.356  -5.580   0.660  1.00  0.00     0.016 C 
HETATM   20  O11 UNL     1       1.608  -4.635   1.501  1.00  0.00    -0.204 OA
ENDBRANCH  11  13
ENDBRANCH  10  11
ENDBRANCH   9  10
ENDBRANCH   3   9
ENDBRANCH   1   2
BRANCH   1  21
HETATM   21  C7  UNL     1       0.064   2.000   0.297  1.00  0.00     0.272 C 
HETATM   22  C8  UNL     1      -0.630   1.862  -1.046  1.00  0.00     0.214 C 
HETATM   23  C9  UNL     1      -1.757   0.844  -0.988  1.00  0.00     0.217 C 
HETATM   24  C10 UNL     1      -2.667   1.135   0.191  1.00  0.00     0.215 C 
HETATM   25  O6  UNL     1      -1.236  -0.460  -0.882  1.00  0.00    -0.218 OA
HETATM   26  C11 UNL     1      -1.911   1.346   1.496  1.00  0.00     0.184 C 
HETATM   27  O5  UNL     1      -3.399   2.305  -0.096  1.00  0.00    -0.218 OA
HETATM   28  O3  UNL     1      -0.846   2.247   1.354  1.00  0.00    -0.326 OA
BRANCH  22  29
HETATM   29  O7  UNL     1       0.282   1.453  -2.022  1.00  0.00    -0.293 OA
BRANCH  29  30
HETATM   30  C13 UNL     1       0.568   2.203  -3.128  1.00  0.00     0.296 C 
HETATM   31  O8  UNL     1       1.300   1.709  -3.982  1.00  0.00    -0.259 OA
BRANCH  30  32
HETATM   32  C14 UNL     1       0.109   3.602  -3.428  1.00  0.00     0.063 A 
HETATM   33  C15 UNL     1      -0.331   3.903  -4.723  1.00  0.00     0.005 A 
HETATM   34  C16 UNL     1      -0.764   5.193  -5.038  1.00  0.00     0.000 A 
HETATM   35  C17 UNL     1      -0.746   6.194  -4.066  1.00  0.00     0.000 A 
HETATM   36  C18 UNL     1      -0.282   5.905  -2.780  1.00  0.00     0.000 A 
HETATM   37  C19 UNL     1       0.148   4.616  -2.462  1.00  0.00     0.005 A 
ENDBRANCH  30  32
ENDBRANCH  29  30
ENDBRANCH  22  29
BRANCH  26  38
HETATM   38  C12 UNL     1      -1.470   0.080   2.212  1.00  0.00     0.214 C 
HETATM   39  O4  UNL     1      -2.582  -0.686   2.629  1.00  0.00    -0.218 OA
ENDBRANCH  26  38
ENDBRANCH   1  21
TORSDOF 10
