REMARK  1 active torsions:
REMARK  status: ('A' for Active; 'I' for Inactive)
REMARK    1  A    between atoms: C17_20  and  C18_21 
ROOT
HETATM    1  C1  UNL     1       0.098   1.791  -1.597  1.00  0.00     0.034 C 
HETATM    2  C2  UNL     1       0.067   0.949  -0.293  1.00  0.00     0.014 C 
HETATM    3  C3  UNL     1       1.477   0.405   0.054  1.00  0.00     0.108 C 
HETATM    4  C4  UNL     1       2.052  -0.327  -1.165  1.00  0.00     0.164 C 
HETATM    5  C5  UNL     1       2.447   0.832  -2.081  1.00  0.00     0.068 C 
HETATM    6  C6  UNL     1       1.156   1.429  -2.652  1.00  0.00     0.155 C 
HETATM    7  O1  UNL     1       0.617   0.513  -3.577  1.00  0.00    -0.223 OA
HETATM    8  C7  UNL     1       3.206   1.773  -1.130  1.00  0.00     0.063 C 
HETATM    9  C8  UNL     1       2.405   1.624   0.149  1.00  0.00     0.154 C 
HETATM   10  O2  UNL     1       2.448   2.406   1.070  1.00  0.00    -0.296 OA
HETATM   11  C9  UNL     1       3.411   3.213  -1.605  1.00  0.00     0.008 C 
HETATM   12  O3  UNL     1       3.185  -1.092  -0.842  1.00  0.00    -0.223 OA
HETATM   13  C10 UNL     1       1.458  -0.334   1.391  1.00  0.00     0.161 C 
HETATM   14  C11 UNL     1       0.373  -1.402   1.439  1.00  0.00     0.034 C 
HETATM   15  C12 UNL     1      -1.018  -0.763   1.247  1.00  0.00     0.012 C 
HETATM   16  C13 UNL     1      -1.148  -0.031  -0.122  1.00  0.00     0.001 C 
HETATM   17  C14 UNL     1      -2.471   0.797  -0.127  1.00  0.00     0.000 C 
HETATM   18  C15 UNL     1      -3.526   0.360   0.904  1.00  0.00     0.001 C 
HETATM   19  C16 UNL     1      -3.542  -1.157   1.120  1.00  0.00     0.010 C 
HETATM   20  C17 UNL     1      -2.195  -1.695   1.656  1.00  0.00     0.079 C 
HETATM   21  C19 UNL     1      -2.028  -3.161   1.189  1.00  0.00     0.011 C 
HETATM   22  C20 UNL     1      -1.254  -1.041  -1.286  1.00  0.00     0.000 C 
HETATM   23  O6  UNL     1       2.714  -0.893   1.694  1.00  0.00    -0.223 OA
ENDROOT
BRANCH  20  24
HETATM   24  C18 UNL     1      -2.235  -1.762   3.194  1.00  0.00     0.184 C 
HETATM   25  O4  UNL     1      -1.826  -2.663   3.887  1.00  0.00    -0.647 OA
HETATM   26  O5  UNL     1      -2.778  -0.670   3.764  1.00  0.00    -0.647 OA
ENDBRANCH  20  24
TORSDOF 1
