REMARK  1 active torsions:
REMARK  status: ('A' for Active; 'I' for Inactive)
REMARK    1  A    between atoms: C5_5  and  C7_8 
ROOT
HETATM    1  C1  UNL     1       0.182   1.833  -0.456  1.00  0.00     0.217 A 
HETATM    2  C2  UNL     1       0.156   0.544  -0.017  1.00  0.00     0.028 A 
HETATM    3  C3  UNL     1       1.300  -0.002   0.438  1.00  0.00     0.079 A 
HETATM    4  C4  UNL     1       2.471   0.707   0.407  1.00  0.00     0.197 A 
HETATM    5  C5  UNL     1       2.490   1.980  -0.072  1.00  0.00     0.045 A 
HETATM    6  C6  UNL     1       1.341   2.536  -0.485  1.00  0.00     0.168 A 
HETATM    7  O1  UNL     1       1.236   3.824  -0.921  1.00  0.00    -0.187 OA
HETATM    8  O2  UNL     1       3.516   0.237   0.802  1.00  0.00    -0.287 OA
HETATM    9  C10 UNL     1       1.302  -1.279   0.920  1.00  0.00     0.223 C 
HETATM   10  C11 UNL     1       0.233  -2.113   0.815  1.00  0.00     0.162 C 
HETATM   11  C12 UNL     1      -0.955  -1.710   0.325  1.00  0.00    -0.013 C 
HETATM   12  C13 UNL     1      -1.179  -0.215   0.071  1.00  0.00     0.039 C 
HETATM   13  C14 UNL     1      -2.017  -0.042  -1.215  1.00  0.00     0.008 C 
HETATM   14  C15 UNL     1      -3.308  -0.863  -1.226  1.00  0.00     0.001 C 
HETATM   15  C16 UNL     1      -2.957  -2.342  -1.118  1.00  0.00     0.004 C 
HETATM   16  C17 UNL     1      -2.129  -2.701   0.137  1.00  0.00     0.018 C 
HETATM   17  C18 UNL     1      -1.708  -4.174  -0.137  1.00  0.00     0.004 C 
HETATM   18  C19 UNL     1      -3.026  -2.762   1.393  1.00  0.00     0.004 C 
HETATM   19  C20 UNL     1      -1.881   0.416   1.296  1.00  0.00     0.009 C 
HETATM   20  O3  UNL     1       0.494  -3.392   1.213  1.00  0.00    -0.187 OA
HETATM   21  O4  UNL     1       2.293  -1.791   1.395  1.00  0.00    -0.284 OA
HETATM   22  O5  UNL     1      -0.793   2.452  -0.817  1.00  0.00    -0.285 OA
ENDROOT
BRANCH   5  23
HETATM   23  C7  UNL     1       3.808   2.757  -0.080  1.00  0.00     0.028 C 
HETATM   24  C8  UNL     1       4.096   3.547  -1.370  1.00  0.00     0.005 C 
HETATM   25  C9  UNL     1       3.891   3.664   1.158  1.00  0.00     0.005 C 
ENDBRANCH   5  23
TORSDOF 1
