REMARK  4 active torsions:
REMARK  status: ('A' for Active; 'I' for Inactive)
REMARK    1  A    between atoms: C1_1  and  C18_23 
REMARK    2  A    between atoms: C18_23  and  C19_24 
REMARK    3  A    between atoms: C19_24  and  O6_25 
REMARK    4  A    between atoms: O6_25  and  C20_26 
ROOT
HETATM    1  C1  UNL     1       1.986   1.685  -0.316  1.00  0.00     0.047 A 
HETATM    2  C2  UNL     1       1.900   0.341  -0.473  1.00  0.00     0.192 A 
HETATM    3  C3  UNL     1       0.694  -0.275  -0.369  1.00  0.00     0.048 A 
HETATM    4  C4  UNL     1      -0.441   0.417  -0.162  1.00  0.00     0.020 A 
HETATM    5  C5  UNL     1      -0.334   1.758   0.054  1.00  0.00     0.216 A 
HETATM    6  C6  UNL     1       0.871   2.380  -0.039  1.00  0.00     0.169 A 
HETATM    7  O1  UNL     1       0.865   3.735   0.121  1.00  0.00    -0.187 OA
HETATM    8  O2  UNL     1      -1.263   2.486   0.317  1.00  0.00    -0.285 OA
HETATM    9  C7  UNL     1      -1.807  -0.294  -0.152  1.00  0.00     0.028 C 
HETATM   10  C8  UNL     1      -1.764  -1.685  -0.866  1.00  0.00     0.055 C 
HETATM   11  C9  UNL     1      -0.587  -2.506  -0.337  1.00  0.00     0.191 C 
HETATM   12  C10 UNL     1       0.731  -1.777  -0.510  1.00  0.00     0.208 C 
HETATM   13  O3  UNL     1       1.280  -2.070  -1.784  1.00  0.00    -0.216 OA
HETATM   14  O4  UNL     1      -0.422  -3.732  -1.017  1.00  0.00    -0.220 OA
HETATM   15  C11 UNL     1      -3.142  -2.358  -0.897  1.00  0.00    -0.049 C 
HETATM   16  C12 UNL     1      -4.267  -1.621  -1.005  1.00  0.00    -0.052 C 
HETATM   17  C13 UNL     1      -4.251  -0.117  -0.928  1.00  0.00     0.022 C 
HETATM   18  C14 UNL     1      -2.852   0.499  -0.976  1.00  0.00     0.009 C 
HETATM   19  C15 UNL     1      -5.671  -2.175  -1.133  1.00  0.00     0.026 C 
HETATM   20  C16 UNL     1      -3.205  -3.870  -0.903  1.00  0.00     0.026 C 
HETATM   21  C17 UNL     1      -2.236  -0.424   1.325  1.00  0.00     0.005 C 
HETATM   22  O5  UNL     1       2.874  -0.329  -0.738  1.00  0.00    -0.287 OA
ENDROOT
BRANCH   1  23
HETATM   23  C18 UNL     1       3.334   2.367  -0.492  1.00  0.00     0.061 C 
BRANCH  23  24
HETATM   24  C19 UNL     1       4.447   1.958   0.486  1.00  0.00     0.120 C 
HETATM   25  C22 UNL     1       5.807   2.033  -0.223  1.00  0.00     0.033 C 
BRANCH  24  26
HETATM   26  O6  UNL     1       4.536   2.805   1.602  1.00  0.00    -0.356 OA
BRANCH  26  27
HETATM   27  C20 UNL     1       3.458   2.750   2.502  1.00  0.00     0.142 C 
HETATM   28  C21 UNL     1       3.339   1.406   3.215  1.00  0.00     0.035 C 
ENDBRANCH  26  27
ENDBRANCH  24  26
ENDBRANCH  23  24
ENDBRANCH   1  23
TORSDOF 4
