REMARK  1 active torsions:
REMARK  status: ('A' for Active; 'I' for Inactive)
REMARK    1  A    between atoms: C6_6  and  O1_7 
ROOT
HETATM    1  C1  UNL     1      -3.373   1.278   0.368  1.00  0.00     0.155 C 
HETATM    2  C2  UNL     1      -3.255  -0.062   0.372  1.00  0.00     0.030 C 
HETATM    3  C3  UNL     1      -2.143  -0.687  -0.051  1.00  0.00     0.004 C 
HETATM    4  C4  UNL     1      -1.234   0.126  -0.613  1.00  0.00     0.027 C 
HETATM    5  C5  UNL     1      -1.271   1.475  -0.613  1.00  0.00     0.124 C 
HETATM    6  C6  UNL     1      -2.357   2.058  -0.061  1.00  0.00     0.142 C 
HETATM    7  O2  UNL     1      -0.230   2.221  -1.141  1.00  0.00    -0.305 OA
HETATM    8  C8  UNL     1       0.962   1.639  -0.792  1.00  0.00     0.100 C 
HETATM    9  C9  UNL     1       1.619   0.840  -1.651  1.00  0.00     0.025 C 
HETATM   10  C10 UNL     1       2.597   0.032  -1.217  1.00  0.00     0.002 C 
HETATM   11  C11 UNL     1       2.941   0.001   0.082  1.00  0.00    -0.000 C 
HETATM   12  C12 UNL     1       2.506   1.011   0.861  1.00  0.00     0.002 C 
HETATM   13  C13 UNL     1       1.488   1.778   0.439  1.00  0.00     0.025 C 
HETATM   14  C14 UNL     1       3.598  -1.016   0.675  1.00  0.00    -0.002 C 
HETATM   15  C15 UNL     1       3.502  -2.331   0.382  1.00  0.00     0.006 C 
HETATM   16  C16 UNL     1       2.628  -3.054  -0.632  1.00  0.00     0.178 C 
HETATM   17  O3  UNL     1       1.366  -3.505  -0.148  1.00  0.00    -0.294 OA
HETATM   18  C17 UNL     1       0.381  -2.567   0.054  1.00  0.00     0.296 C 
HETATM   19  C18 UNL     1      -0.949  -2.857  -0.050  1.00  0.00     0.068 C 
HETATM   20  C19 UNL     1      -2.021  -2.033   0.002  1.00  0.00     0.006 C 
HETATM   21  O4  UNL     1       0.713  -1.440   0.329  1.00  0.00    -0.259 OA
HETATM   22  O5  UNL     1      -4.509   1.865   0.835  1.00  0.00    -0.188 OA
ENDROOT
BRANCH   6  23
HETATM   23  O1  UNL     1      -2.512   3.421  -0.072  1.00  0.00    -0.324 OA
HETATM   24  C7  UNL     1      -1.934   4.074   1.036  1.00  0.00     0.182 C 
ENDBRANCH   6  23
TORSDOF 1
