REMARK  4 active torsions:
REMARK  status: ('A' for Active; 'I' for Inactive)
REMARK    1  A    between atoms: C4_4  and  O3_19 
REMARK    2  A    between atoms: C6_6  and  C7_7 
REMARK    3  A    between atoms: C7_7  and  O2_9 
REMARK    4  A    between atoms: O2_9  and  C8_10 
ROOT
HETATM    1  C7  UNL     1       2.820   0.093  -0.101  1.00  0.00     0.296 C 
HETATM    2  O1  UNL     1       3.987   0.403  -0.251  1.00  0.00    -0.259 OA
ENDROOT
BRANCH   1   3
HETATM    3  C6  UNL     1       2.546  -1.242  -0.268  1.00  0.00     0.065 A 
HETATM    4  C1  UNL     1       3.513  -2.059  -0.733  1.00  0.00     0.008 A 
HETATM    5  C2  UNL     1       3.286  -3.365  -0.927  1.00  0.00     0.030 A 
HETATM    6  C3  UNL     1       2.096  -3.916  -0.647  1.00  0.00     0.153 A 
HETATM    7  C4  UNL     1       1.114  -3.144  -0.138  1.00  0.00     0.119 A 
HETATM    8  O4  UNL     1       1.882  -5.244  -0.853  1.00  0.00    -0.188 OA
HETATM    9  C5  UNL     1       1.370  -1.829   0.027  1.00  0.00     0.032 A 
BRANCH   7  10
HETATM   10  O3  UNL     1      -0.086  -3.756   0.141  1.00  0.00    -0.326 OA
HETATM   11  C16 UNL     1      -1.234  -2.965   0.340  1.00  0.00     0.181 C 
ENDBRANCH   7  10
ENDBRANCH   1   3
BRANCH   1  12
HETATM   12  O2  UNL     1       2.007   1.147   0.249  1.00  0.00    -0.301 OA
BRANCH  12  13
HETATM   13  C8  UNL     1       0.628   1.223   0.035  1.00  0.00     0.129 C 
HETATM   14  C9  UNL     1       0.334   2.507  -0.755  1.00  0.00     0.064 C 
HETATM   15  C10 UNL     1      -1.163   2.881  -0.736  1.00  0.00     0.222 C 
HETATM   16  C11 UNL     1      -2.054   1.705  -1.181  1.00  0.00     0.035 C 
HETATM   17  N1  UNL     1      -1.541   3.128   0.648  1.00  0.00     0.135 N 
HETATM   18  C12 UNL     1      -2.344   0.957   0.135  1.00  0.00     0.035 C 
HETATM   19  C13 UNL     1      -1.584   1.779   1.193  1.00  0.00     0.222 C 
HETATM   20  C14 UNL     1      -0.133   1.278   1.364  1.00  0.00     0.064 C 
HETATM   21  C15 UNL     1      -2.804   3.837   0.774  1.00  0.00     0.285 C 
ENDBRANCH  12  13
ENDBRANCH   1  12
TORSDOF 4
