REMARK  1 active torsions:
REMARK  status: ('A' for Active; 'I' for Inactive)
REMARK    1  A    between atoms: C7_7  and  O2_14 
ROOT
HETATM    1  C1  UNL     1       3.073   0.034  -0.220  1.00  0.00     0.028 A 
HETATM    2  C2  UNL     1       3.083  -1.308  -0.194  1.00  0.00     0.133 A 
HETATM    3  C3  UNL     1       1.898  -1.928  -0.078  1.00  0.00     0.047 A 
HETATM    4  C4  UNL     1       0.739  -1.249   0.005  1.00  0.00     0.087 A 
HETATM    5  C5  UNL     1       0.736   0.101  -0.025  1.00  0.00     0.040 A 
HETATM    6  C6  UNL     1       1.926   0.723  -0.137  1.00  0.00     0.006 A 
HETATM    7  C7  UNL     1      -0.420   0.806   0.052  1.00  0.00     0.099 A 
HETATM    8  C8  UNL     1      -1.515   0.027   0.153  1.00  0.00     0.066 A 
HETATM    9  C9  UNL     1      -1.431  -1.315   0.179  1.00  0.00     0.184 A 
HETATM   10  N1  UNL     1      -0.328  -1.924   0.108  1.00  0.00    -0.222 NA
HETATM   11  O1  UNL     1      -2.540  -1.844   0.275  1.00  0.00    -0.287 OA
HETATM   12  C10 UNL     1      -3.389  -0.959   0.316  1.00  0.00     0.125 A 
HETATM   13  C11 UNL     1      -2.834   0.256   0.245  1.00  0.00     0.032 A 
HETATM   14  O3  UNL     1       4.240  -2.016  -0.282  1.00  0.00    -0.190 OA
ENDROOT
BRANCH   7  15
HETATM   15  O2  UNL     1      -0.364   2.180   0.018  1.00  0.00    -0.328 OA
HETATM   16  C12 UNL     1      -1.530   2.959   0.106  1.00  0.00     0.181 C 
ENDBRANCH   7  15
TORSDOF 1
