REMARK  7 active torsions:
REMARK  status: ('A' for Active; 'I' for Inactive)
REMARK    1  A    between atoms: C9_10  and  C21_25 
REMARK    2  A    between atoms: C16_18  and  C17_19 
REMARK    3  A    between atoms: C17_19  and  O2_21 
REMARK    4  A    between atoms: C22_26  and  O6_51 
REMARK    5  A    between atoms: C32_38  and  C40_47 
REMARK    6  A    between atoms: C37_43  and  C38_44 
REMARK    7  A    between atoms: C40_47  and  O5_49 
ROOT
HETATM    1  C21 UNL     1       0.946  -0.697   2.493  1.00  0.00     0.041 A 
HETATM    2  C22 UNL     1       1.941  -0.496   3.401  1.00  0.00     0.096 A 
HETATM    3  C23 UNL     1       2.474   0.741   3.512  1.00  0.00     0.024 A 
HETATM    4  C24 UNL     1       2.097   1.781   2.757  1.00  0.00     0.003 A 
HETATM    5  C25 UNL     1       1.123   1.575   1.868  1.00  0.00     0.015 A 
HETATM    6  C26 UNL     1       0.560   0.366   1.763  1.00  0.00     0.083 A 
HETATM    7  N3  UNL     1      -0.321   0.489   0.860  1.00  0.00    -0.250 NA
HETATM    8  C27 UNL     1      -0.371   1.649   0.339  1.00  0.00     0.065 A 
HETATM    9  C28 UNL     1       0.554   2.406   0.979  1.00  0.00    -0.005 A 
HETATM   10  C29 UNL     1       0.943   3.869   0.775  1.00  0.00     0.051 C 
HETATM   11  C30 UNL     1       1.216   4.266  -0.698  1.00  0.00     0.102 C 
HETATM   12  N4  UNL     1       0.376   3.416  -1.487  1.00  0.00    -0.369 N 
HETATM   13  C31 UNL     1      -1.045   3.507  -1.198  1.00  0.00     0.093 C 
HETATM   14  C32 UNL     1      -1.291   2.028  -0.831  1.00  0.00     0.131 C 
HETATM   15  C33 UNL     1      -0.879   1.246  -2.121  1.00  0.00     0.019 C 
HETATM   16  C34 UNL     1      -0.495   2.198  -3.288  1.00  0.00     0.023 C 
HETATM   17  C35 UNL     1       0.662   3.131  -2.866  1.00  0.00     0.097 C 
HETATM   18  C36 UNL     1      -1.703   3.095  -3.585  1.00  0.00     0.006 C 
HETATM   19  C37 UNL     1      -1.923   4.011  -2.366  1.00  0.00     0.051 C 
ENDROOT
BRANCH   1  20
HETATM   20  C9  UNL     1       0.301  -2.079   2.352  1.00  0.00     0.017 C 
HETATM   21  C8  UNL     1      -1.091  -2.193   1.758  1.00  0.00     0.081 A 
HETATM   22  C7  UNL     1      -1.550  -2.406   0.501  1.00  0.00     0.017 A 
HETATM   23  N1  UNL     1      -2.121  -2.150   2.511  1.00  0.00    -0.246 NA
HETATM   24  C5  UNL     1      -2.890  -2.494   0.613  1.00  0.00     0.019 A 
HETATM   25  C15 UNL     1      -0.903  -2.553  -0.856  1.00  0.00    -0.001 C 
HETATM   26  C4  UNL     1      -3.210  -2.327   1.898  1.00  0.00     0.081 A 
HETATM   27  C6  UNL     1      -3.858  -2.718  -0.286  1.00  0.00     0.002 A 
HETATM   28  C3  UNL     1      -4.469  -2.372   2.345  1.00  0.00     0.019 A 
HETATM   29  C2  UNL     1      -5.436  -2.605   1.442  1.00  0.00     0.002 A 
HETATM   30  C1  UNL     1      -5.131  -2.778   0.143  1.00  0.00     0.000 A 
HETATM   31  C14 UNL     1       0.615  -2.622  -1.063  1.00  0.00     0.130 C 
HETATM   32  N2  UNL     1       1.212  -1.373  -0.617  1.00  0.00    -0.288 NA
HETATM   33  C16 UNL     1       1.258  -3.856  -0.412  1.00  0.00     0.120 C 
HETATM   34  C13 UNL     1       2.659  -1.396  -0.480  1.00  0.00     0.142 C 
HETATM   35  C12 UNL     1       3.018  -2.344   0.633  1.00  0.00    -0.021 C 
HETATM   36  C11 UNL     1       2.054  -3.490   0.854  1.00  0.00     0.053 C 
HETATM   37  C19 UNL     1       4.106  -2.204   1.412  1.00  0.00    -0.032 C 
HETATM   38  C10 UNL     1       1.177  -3.332   2.111  1.00  0.00    -0.020 C 
HETATM   39  C20 UNL     1       5.156  -1.130   1.314  1.00  0.00     0.030 C 
BRANCH  33  40
HETATM   40  C17 UNL     1       2.084  -4.759  -1.334  1.00  0.00     0.274 C 
HETATM   41  O1  UNL     1       2.243  -5.942  -1.129  1.00  0.00    -0.264 OA
BRANCH  40  42
HETATM   42  O2  UNL     1       2.648  -4.091  -2.374  1.00  0.00    -0.299 OA
HETATM   43  C18 UNL     1       3.462  -4.846  -3.239  1.00  0.00     0.184 C 
ENDBRANCH  40  42
ENDBRANCH  33  40
ENDBRANCH   1  20
BRANCH   2  44
HETATM   44  O6  UNL     1       2.337  -1.534   4.213  1.00  0.00    -0.328 OA
HETATM   45  C42 UNL     1       3.107  -1.268   5.362  1.00  0.00     0.181 C 
ENDBRANCH   2  44
BRANCH  14  46
HETATM   46  C40 UNL     1      -2.726   1.855  -0.336  1.00  0.00     0.278 C 
HETATM   47  O4  UNL     1      -3.250   2.615   0.448  1.00  0.00    -0.264 OA
BRANCH  46  48
HETATM   48  O5  UNL     1      -3.350   0.778  -0.878  1.00  0.00    -0.299 OA
HETATM   49  C41 UNL     1      -4.696   0.595  -0.509  1.00  0.00     0.184 C 
ENDBRANCH  46  48
ENDBRANCH  14  46
BRANCH  19  50
HETATM   50  C38 UNL     1      -1.729   5.503  -2.682  1.00  0.00     0.154 C 
HETATM   51  C39 UNL     1      -2.070   6.438  -1.522  1.00  0.00     0.036 C 
HETATM   52  O3  UNL     1      -2.559   5.860  -3.766  1.00  0.00    -0.223 OA
ENDBRANCH  19  50
TORSDOF 7
