REMARK  6 active torsions:
REMARK  status: ('A' for Active; 'I' for Inactive)
REMARK    1  A    between atoms: C2_2  and  O5_50 
REMARK    2  A    between atoms: C3_3  and  C20_23 
REMARK    3  A    between atoms: C17_19  and  C18_20 
REMARK    4  A    between atoms: C37_42  and  C38_43 
REMARK    5  A    between atoms: C37_42  and  O3_45 
REMARK    6  A    between atoms: O3_45  and  C39_46 
ROOT
HETATM    1  C20 UNL     1      -1.963  -1.566   0.196  1.00  0.00     0.066 C 
HETATM    2  C21 UNL     1      -1.141  -1.484   1.460  1.00  0.00     0.059 A 
HETATM    3  N3  UNL     1      -1.661  -1.492   2.623  1.00  0.00    -0.250 NA
HETATM    4  C22 UNL     1      -0.795  -1.451   3.543  1.00  0.00     0.081 A 
HETATM    5  C23 UNL     1      -0.946  -1.457   4.872  1.00  0.00     0.019 A 
HETATM    6  C24 UNL     1       0.169  -1.420   5.621  1.00  0.00     0.002 A 
HETATM    7  C25 UNL     1       1.383  -1.379   5.042  1.00  0.00     0.000 A 
HETATM    8  C26 UNL     1       1.517  -1.372   3.704  1.00  0.00     0.001 A 
HETATM    9  C27 UNL     1       0.406  -1.408   2.955  1.00  0.00     0.015 A 
HETATM   10  C28 UNL     1       0.200  -1.426   1.627  1.00  0.00    -0.005 A 
HETATM   11  C29 UNL     1       1.281  -1.382   0.578  1.00  0.00     0.064 C 
HETATM   12  C30 UNL     1       1.654  -2.719  -0.098  1.00  0.00     0.252 C 
HETATM   13  N4  UNL     1       2.424  -2.545  -1.335  1.00  0.00     0.144 N 
HETATM   14  C31 UNL     1       1.643  -2.034  -2.456  1.00  0.00     0.272 C 
HETATM   15  C32 UNL     1       0.366  -2.829  -2.675  1.00  0.00    -0.013 C 
HETATM   16  C33 UNL     1      -0.002  -3.210  -3.912  1.00  0.00    -0.032 C 
HETATM   17  C34 UNL     1      -1.257  -3.937  -4.319  1.00  0.00     0.030 C 
HETATM   18  C35 UNL     1      -0.451  -3.071  -1.419  1.00  0.00     0.051 C 
HETATM   19  C36 UNL     1      -1.226  -1.763  -1.139  1.00  0.00     0.017 C 
HETATM   20  C37 UNL     1       0.495  -3.707  -0.374  1.00  0.00     0.165 C 
HETATM   21  C41 UNL     1       3.625  -1.741  -1.150  1.00  0.00     0.286 C 
ENDROOT
BRANCH   1  22
HETATM   22  C3  UNL     1      -2.822  -0.308   0.068  1.00  0.00     0.023 A 
HETATM   23  C2  UNL     1      -4.148  -0.352  -0.212  1.00  0.00     0.092 A 
HETATM   24  C1  UNL     1      -4.786   0.828  -0.401  1.00  0.00     0.024 A 
HETATM   25  C6  UNL     1      -4.184   2.028  -0.326  1.00  0.00     0.003 A 
HETATM   26  C5  UNL     1      -2.877   2.053  -0.050  1.00  0.00     0.015 A 
HETATM   27  C4  UNL     1      -2.241   0.896   0.155  1.00  0.00     0.079 A 
HETATM   28  C7  UNL     1      -1.968   3.037   0.053  1.00  0.00    -0.005 A 
HETATM   29  N1  UNL     1      -1.034   1.189   0.392  1.00  0.00    -0.250 NA
HETATM   30  C8  UNL     1      -0.803   2.436   0.342  1.00  0.00     0.057 A 
HETATM   31  C9  UNL     1       0.534   3.092   0.505  1.00  0.00     0.071 C 
HETATM   32  C10 UNL     1       0.923   3.888  -0.754  1.00  0.00     0.227 C 
HETATM   33  C15 UNL     1       0.700   3.974   1.750  1.00  0.00     0.010 C 
HETATM   34  N2  UNL     1       0.243   5.173  -0.841  1.00  0.00     0.136 N 
HETATM   35  C17 UNL     1       2.454   4.121  -0.682  1.00  0.00     0.062 C 
HETATM   36  C11 UNL     1      -1.175   5.111  -1.176  1.00  0.00     0.255 C 
HETATM   37  C13 UNL     1       0.530   6.000   0.325  1.00  0.00     0.250 C 
HETATM   38  C12 UNL     1      -2.157   4.510  -0.150  1.00  0.00     0.063 C 
HETATM   39  C14 UNL     1       1.437   5.255   1.320  1.00  0.00     0.034 C 
HETATM   40  C16 UNL     1       2.758   4.912   0.607  1.00  0.00     0.006 C 
BRANCH  23  41
HETATM   41  O5  UNL     1      -4.752  -1.581  -0.346  1.00  0.00    -0.328 OA
HETATM   42  C42 UNL     1      -6.055  -1.653  -0.876  1.00  0.00     0.181 C 
ENDBRANCH  23  41
BRANCH  35  43
HETATM   43  C18 UNL     1       3.046   4.716  -1.967  1.00  0.00     0.154 C 
HETATM   44  C19 UNL     1       4.572   4.648  -2.005  1.00  0.00     0.036 C 
HETATM   45  O1  UNL     1       2.644   6.054  -2.137  1.00  0.00    -0.223 OA
ENDBRANCH  35  43
ENDBRANCH   1  22
BRANCH  20  46
HETATM   46  C38 UNL     1       1.025  -5.033  -0.967  1.00  0.00     0.212 C 
HETATM   47  O2  UNL     1       1.836  -5.748  -0.053  1.00  0.00    -0.218 OA
ENDBRANCH  20  46
BRANCH  20  48
HETATM   48  O3  UNL     1      -0.284  -4.064   0.731  1.00  0.00    -0.302 OA
BRANCH  48  49
HETATM   49  C39 UNL     1       0.260  -4.473   1.909  1.00  0.00     0.272 C 
HETATM   50  C40 UNL     1      -0.828  -4.883   2.882  1.00  0.00     0.106 C 
HETATM   51  O4  UNL     1       1.440  -4.536   2.164  1.00  0.00    -0.264 OA
ENDBRANCH  48  49
ENDBRANCH  20  48
TORSDOF 6
