REMARK  6 active torsions:
REMARK  status: ('A' for Active; 'I' for Inactive)
REMARK    1  A    between atoms: C5_5  and  C9_9 
REMARK    2  A    between atoms: C10_10  and  C11_11 
REMARK    3  A    between atoms: C11_11  and  C12_12 
REMARK    4  A    between atoms: C12_12  and  O1_13 
REMARK    5  A    between atoms: O1_13  and  C13_14 
REMARK    6  A    between atoms: C14_16  and  C18_23 
ROOT
HETATM    1  C11 UNL     1       0.777   0.089   2.451  1.00  0.00     0.203 C 
HETATM    2  O7  UNL     1       0.676  -0.270   3.603  1.00  0.00    -0.289 OA
ENDROOT
BRANCH   1   3
HETATM    3  C10 UNL     1      -0.019  -0.385   1.457  1.00  0.00     0.038 C 
HETATM    4  C9  UNL     1      -0.993  -1.290   1.646  1.00  0.00     0.010 C 
BRANCH   4   5
HETATM    5  C5  UNL     1      -1.922  -1.808   0.564  1.00  0.00     0.161 C 
HETATM    6  C4  UNL     1      -2.291  -3.261   0.813  1.00  0.00    -0.010 C 
HETATM    7  C3  UNL     1      -3.487  -3.769   0.471  1.00  0.00     0.032 C 
HETATM    8  C19 UNL     1      -1.215  -4.167   1.373  1.00  0.00     0.029 C 
HETATM    9  C2  UNL     1      -4.471  -3.052  -0.124  1.00  0.00     0.173 C 
HETATM   10  C1  UNL     1      -4.204  -1.599  -0.464  1.00  0.00     0.072 C 
HETATM   11  O9  UNL     1      -5.534  -3.559  -0.407  1.00  0.00    -0.291 OA
HETATM   12  C6  UNL     1      -3.185  -0.922   0.475  1.00  0.00     0.040 C 
HETATM   13  C7  UNL     1      -2.870   0.486  -0.081  1.00  0.00     0.004 C 
HETATM   14  C8  UNL     1      -3.839  -0.742   1.865  1.00  0.00     0.004 C 
HETATM   15  O8  UNL     1      -1.260  -1.792  -0.695  1.00  0.00    -0.217 OA
ENDBRANCH   4   5
ENDBRANCH   1   3
BRANCH   1  16
HETATM   16  C12 UNL     1       1.840   1.125   2.076  1.00  0.00     0.213 C 
BRANCH  16  17
HETATM   17  O1  UNL     1       2.389   0.858   0.799  1.00  0.00    -0.321 OA
BRANCH  17  18
HETATM   18  C13 UNL     1       3.399   1.748   0.393  1.00  0.00     0.270 C 
HETATM   19  O2  UNL     1       2.821   2.982   0.025  1.00  0.00    -0.326 OA
HETATM   20  C14 UNL     1       2.113   3.023  -1.185  1.00  0.00     0.184 C 
HETATM   21  C15 UNL     1       2.882   2.409  -2.348  1.00  0.00     0.215 C 
HETATM   22  C16 UNL     1       3.482   1.053  -2.029  1.00  0.00     0.220 C 
HETATM   23  O5  UNL     1       3.932   3.278  -2.717  1.00  0.00    -0.218 OA
HETATM   24  C17 UNL     1       4.233   1.138  -0.713  1.00  0.00     0.241 C 
HETATM   25  O4  UNL     1       2.479   0.068  -1.952  1.00  0.00    -0.218 OA
HETATM   26  O3  UNL     1       5.382   1.933  -0.898  1.00  0.00    -0.215 OA
BRANCH  20  27
HETATM   27  C18 UNL     1       0.678   2.529  -1.044  1.00  0.00     0.214 C 
HETATM   28  O6  UNL     1      -0.122   3.068  -2.078  1.00  0.00    -0.218 OA
ENDBRANCH  20  27
ENDBRANCH  17  18
ENDBRANCH  16  17
ENDBRANCH   1  16
TORSDOF 6
