REMARK  3 active torsions:
REMARK  status: ('A' for Active; 'I' for Inactive)
REMARK    1  A    between atoms: C3_3  and  C31_34 
REMARK    2  A    between atoms: C5_5  and  O1_8 
REMARK    3  A    between atoms: O1_8  and  C8_9 
ROOT
HETATM    1  C1  UNL     1       2.484   2.015  -1.218  1.00  0.00     0.006 C 
HETATM    2  C2  UNL     1       1.867   1.808   0.190  1.00  0.00     0.025 C 
HETATM    3  C3  UNL     1       2.825   1.138   1.194  1.00  0.00     0.064 C 
HETATM    4  C4  UNL     1       4.194   1.846   1.190  1.00  0.00     0.038 C 
HETATM    5  C5  UNL     1       4.803   2.010  -0.202  1.00  0.00     0.125 C 
HETATM    6  C6  UNL     1       3.843   2.758  -1.142  1.00  0.00     0.028 C 
HETATM    7  C7  UNL     1       4.487   2.933  -2.533  1.00  0.00     0.003 C 
HETATM    8  C10 UNL     1       2.949  -0.360   0.865  1.00  0.00     0.008 C 
HETATM    9  C11 UNL     1       1.592  -1.070   0.988  1.00  0.00     0.004 C 
HETATM   10  C12 UNL     1       0.432  -0.431   0.178  1.00  0.00     0.015 C 
HETATM   11  C13 UNL     1       0.517   1.097   0.185  1.00  0.00    -0.049 C 
HETATM   12  C14 UNL     1      -0.603   1.838   0.091  1.00  0.00    -0.035 C 
HETATM   13  C15 UNL     1      -2.010   1.308   0.017  1.00  0.00     0.025 C 
HETATM   14  C16 UNL     1      -2.104  -0.225  -0.087  1.00  0.00     0.005 C 
HETATM   15  C17 UNL     1      -0.977  -0.864   0.779  1.00  0.00     0.004 C 
HETATM   16  C18 UNL     1      -1.129  -2.404   0.803  1.00  0.00     0.000 C 
HETATM   17  C19 UNL     1      -2.567  -2.891   1.024  1.00  0.00     0.000 C 
HETATM   18  C20 UNL     1      -3.508  -2.353  -0.067  1.00  0.00     0.006 C 
HETATM   19  C21 UNL     1      -3.563  -0.803  -0.039  1.00  0.00     0.001 C 
HETATM   20  C22 UNL     1      -4.296  -0.404  -1.349  1.00  0.00     0.008 C 
HETATM   21  C23 UNL     1      -5.737  -0.915  -1.431  1.00  0.00     0.065 C 
HETATM   22  C24 UNL     1      -5.998  -2.251  -0.763  1.00  0.00     0.150 C 
HETATM   23  C25 UNL     1      -4.870  -3.099  -0.166  1.00  0.00     0.051 C 
HETATM   24  C26 UNL     1      -5.359  -3.647   1.195  1.00  0.00     0.007 C 
HETATM   25  C27 UNL     1      -4.734  -4.307  -1.125  1.00  0.00     0.007 C 
HETATM   26  O3  UNL     1      -7.144  -2.647  -0.730  1.00  0.00    -0.296 OA
HETATM   27  C28 UNL     1      -4.404  -0.266   1.141  1.00  0.00     0.000 C 
HETATM   28  C29 UNL     1      -1.100  -0.383   2.253  1.00  0.00     0.000 C 
HETATM   29  C30 UNL     1       0.639  -0.865  -1.301  1.00  0.00     0.004 C 
HETATM   30  C32 UNL     1       1.494   2.723  -2.164  1.00  0.00     0.000 C 
ENDROOT
BRANCH   5  31
HETATM   31  O1  UNL     1       6.003   2.726  -0.091  1.00  0.00    -0.304 OA
BRANCH  31  32
HETATM   32  C8  UNL     1       7.141   2.027   0.171  1.00  0.00     0.272 C 
HETATM   33  C9  UNL     1       8.333   2.963   0.195  1.00  0.00     0.106 C 
HETATM   34  O2  UNL     1       7.202   0.832   0.350  1.00  0.00    -0.264 OA
ENDBRANCH  31  32
ENDBRANCH   5  31
BRANCH   3  35
HETATM   35  C31 UNL     1       2.312   1.271   2.631  1.00  0.00     0.207 C 
HETATM   36  O4  UNL     1       1.393   1.988   2.950  1.00  0.00    -0.288 OA
ENDBRANCH   3  35
TORSDOF 3
