REMARK  4 active torsions:
REMARK  status: ('A' for Active; 'I' for Inactive)
REMARK    1  A    between atoms: C3_3  and  C7_8 
REMARK    2  A    between atoms: C16_21  and  C25_33 
REMARK    3  A    between atoms: C17_22  and  C18_23 
REMARK    4  A    between atoms: C18_23  and  C19_24 
ROOT
HETATM    1  C7  UNL     1       1.733   0.052   1.910  1.00  0.00     0.147 C 
HETATM    2  C8  UNL     1       0.447  -0.341   1.188  1.00  0.00     0.074 C 
HETATM    3  C9  UNL     1       0.317  -1.863   1.094  1.00  0.00     0.145 C 
HETATM    4  C10 UNL     1       1.647  -2.596   1.121  1.00  0.00     0.052 A 
HETATM    5  C11 UNL     1       2.802  -1.902   1.175  1.00  0.00     0.097 A 
HETATM    6  O2  UNL     1       2.844  -0.539   1.284  1.00  0.00    -0.329 OA
HETATM    7  C12 UNL     1       3.954  -2.596   1.187  1.00  0.00     0.051 A 
HETATM    8  C13 UNL     1       4.001  -3.935   1.123  1.00  0.00     0.135 A 
HETATM    9  C14 UNL     1       2.831  -4.588   1.071  1.00  0.00     0.055 A 
HETATM   10  C15 UNL     1       1.653  -3.944   1.072  1.00  0.00     0.133 A 
HETATM   11  O3  UNL     1       0.498  -4.664   1.026  1.00  0.00    -0.190 OA
HETATM   12  O4  UNL     1       5.189  -4.597   1.130  1.00  0.00    -0.190 OA
HETATM   13  O5  UNL     1      -0.371  -2.115  -0.112  1.00  0.00    -0.350 OA
HETATM   14  C16 UNL     1       0.089  -1.178  -1.055  1.00  0.00     0.145 C 
HETATM   15  C17 UNL     1       0.338   0.119  -0.277  1.00  0.00     0.099 C 
ENDROOT
BRANCH  15  16
HETATM   16  C18 UNL     1      -0.574   1.323  -0.574  1.00  0.00     0.177 C 
HETATM   17  O8  UNL     1       0.022   2.272  -1.040  1.00  0.00    -0.291 OA
BRANCH  16  18
HETATM   18  C19 UNL     1      -1.925   1.383  -0.369  1.00  0.00     0.060 A 
HETATM   19  C20 UNL     1      -2.632   2.485  -0.714  1.00  0.00     0.136 A 
HETATM   20  C21 UNL     1      -3.961   2.502  -0.500  1.00  0.00     0.055 A 
HETATM   21  O7  UNL     1      -2.079   3.594  -1.285  1.00  0.00    -0.190 OA
HETATM   22  C22 UNL     1      -4.639   1.482   0.045  1.00  0.00     0.133 A 
HETATM   23  C23 UNL     1      -3.927   0.398   0.382  1.00  0.00     0.028 A 
HETATM   24  O6  UNL     1      -5.983   1.536   0.247  1.00  0.00    -0.190 OA
HETATM   25  C24 UNL     1      -2.603   0.357   0.177  1.00  0.00     0.007 A 
ENDBRANCH  16  18
ENDBRANCH  15  16
BRANCH  14  26
HETATM   26  C25 UNL     1      -0.787  -1.028  -2.283  1.00  0.00     0.005 A 
HETATM   27  C26 UNL     1      -0.352  -0.293  -3.322  1.00  0.00     0.000 A 
HETATM   28  C27 UNL     1      -1.097  -0.143  -4.427  1.00  0.00     0.027 A 
HETATM   29  C28 UNL     1      -2.304  -0.721  -4.538  1.00  0.00     0.131 A 
HETATM   30  C29 UNL     1      -2.737  -1.452  -3.498  1.00  0.00     0.027 A 
HETATM   31  O9  UNL     1      -3.066  -0.577  -5.656  1.00  0.00    -0.190 OA
HETATM   32  C30 UNL     1      -1.996  -1.607  -2.390  1.00  0.00     0.000 A 
ENDBRANCH  14  26
BRANCH   1  33
HETATM   33  C3  UNL     1       1.879   1.561   2.016  1.00  0.00     0.005 A 
HETATM   34  C2  UNL     1       1.203   2.242   2.958  1.00  0.00     0.000 A 
HETATM   35  C1  UNL     1       1.322   3.573   3.072  1.00  0.00     0.027 A 
HETATM   36  C6  UNL     1       2.118   4.276   2.249  1.00  0.00     0.131 A 
HETATM   37  C5  UNL     1       2.786   3.595   1.302  1.00  0.00     0.027 A 
HETATM   38  O1  UNL     1       2.236   5.626   2.373  1.00  0.00    -0.190 OA
HETATM   39  C4  UNL     1       2.670   2.263   1.187  1.00  0.00     0.000 A 
ENDBRANCH   1  33
TORSDOF 4
