REMARK  4 active torsions:
REMARK  status: ('A' for Active; 'I' for Inactive)
REMARK    1  A    between atoms: C2_3  and  C9_12 
REMARK    2  A    between atoms: C4_6  and  C5_7 
REMARK    3  A    between atoms: C5_7  and  C7_9 
REMARK    4  A    between atoms: C9_12  and  C10_13 
ROOT
HETATM    1  C1  UNL     1       0.378  -1.035  -1.477  1.00  0.00     0.274 C 
HETATM    2  N1  UNL     1       1.630  -0.928  -0.956  1.00  0.00    -0.228 NA
HETATM    3  C2  UNL     1       2.129   0.228  -0.210  1.00  0.00     0.196 C 
HETATM    4  C3  UNL     1       1.392   1.527  -0.486  1.00  0.00     0.275 C 
HETATM    5  N2  UNL     1       0.182   1.416  -1.096  1.00  0.00    -0.229 NA
HETATM    6  C4  UNL     1      -0.543   0.155  -1.258  1.00  0.00     0.186 C 
HETATM    7  O1  UNL     1       1.840   2.612  -0.206  1.00  0.00    -0.268 OA
HETATM    8  O3  UNL     1       0.040  -2.039  -2.057  1.00  0.00    -0.268 OA
ENDROOT
BRANCH   3   9
HETATM    9  C9  UNL     1       2.243  -0.089   1.291  1.00  0.00     0.126 C 
BRANCH   9  10
HETATM   10  C10 UNL     1       3.041  -1.358   1.545  1.00  0.00     0.276 C 
HETATM   11  N3  UNL     1       3.328  -1.606   2.851  1.00  0.00    -0.107 N 
HETATM   12  O2  UNL     1       3.403  -2.110   0.674  1.00  0.00    -0.269 OA
ENDBRANCH   9  10
ENDBRANCH   3   9
BRANCH   6  13
HETATM   13  C5  UNL     1      -1.543  -0.058  -0.100  1.00  0.00     0.032 C 
HETATM   14  C6  UNL     1      -2.438  -1.292  -0.315  1.00  0.00     0.003 C 
BRANCH  13  15
HETATM   15  C7  UNL     1      -2.397   1.195   0.200  1.00  0.00     0.002 C 
HETATM   16  C8  UNL     1      -3.262   1.689  -0.968  1.00  0.00     0.000 C 
ENDBRANCH  13  15
ENDBRANCH   6  13
TORSDOF 4
