REMARK  1 active torsions:
REMARK  status: ('A' for Active; 'I' for Inactive)
REMARK    1  A    between atoms: C7_8  and  C11_15 
ROOT
HETATM    1  C1  UNL     1      -0.226   2.597   0.261  1.00  0.00     0.152 A 
HETATM    2  C2  UNL     1      -0.511   1.141  -0.162  1.00  0.00     0.084 C 
HETATM    3  C3  UNL     1       0.929   0.561  -0.323  1.00  0.00     0.168 C 
HETATM    4  C4  UNL     1       1.918   1.724  -0.197  1.00  0.00     0.173 A 
HETATM    5  C5  UNL     1       1.220   2.883   0.144  1.00  0.00     0.172 A 
HETATM    6  O1  UNL     1       1.645   2.730  -1.328  1.00  0.00    -0.349 OA
HETATM    7  C6  UNL     1       1.159  -0.488   0.774  1.00  0.00     0.123 C 
HETATM    8  C7  UNL     1       0.240  -1.722   0.647  1.00  0.00     0.063 C 
HETATM    9  C8  UNL     1      -1.194  -1.187   0.620  1.00  0.00     0.184 C 
HETATM   10  C9  UNL     1      -1.193   0.306   0.949  1.00  0.00     0.159 C 
HETATM   11  O2  UNL     1      -0.498   0.515   2.148  1.00  0.00    -0.301 OA
HETATM   12  C10 UNL     1       0.814   0.162   2.109  1.00  0.00     0.274 C 
HETATM   13  O3  UNL     1       1.597   0.342   3.015  1.00  0.00    -0.264 OA
HETATM   14  O4  UNL     1      -1.981  -1.878   1.562  1.00  0.00    -0.221 OA
HETATM   15  O5  UNL     1       1.114  -0.050  -1.580  1.00  0.00    -0.223 OA
HETATM   16  C14 UNL     1      -1.327   1.113  -1.473  1.00  0.00     0.008 C 
HETATM   17  O6  UNL     1      -1.214   3.709  -0.333  1.00  0.00    -0.351 OA
HETATM   18  C15 UNL     1      -1.161   3.370   1.028  1.00  0.00     0.172 A 
ENDROOT
BRANCH   8  19
HETATM   19  C11 UNL     1       0.645  -2.718  -0.426  1.00  0.00    -0.041 C 
HETATM   20  C12 UNL     1       1.849  -3.313  -0.367  1.00  0.00    -0.009 C 
HETATM   21  C13 UNL     1      -0.308  -3.071  -1.544  1.00  0.00     0.026 C 
ENDBRANCH   8  19
TORSDOF 1
