REMARK  5 active torsions:
REMARK  status: ('A' for Active; 'I' for Inactive)
REMARK    1  A    between atoms: C6_6  and  O1_7 
REMARK    2  A    between atoms: O1_7  and  C7_8 
REMARK    3  A    between atoms: C9_11  and  C14_17 
REMARK    4  A    between atoms: C14_17  and  C15_18 
REMARK    5  A    between atoms: C15_18  and  C16_20 
ROOT
HETATM    1  C1  UNL     1      -3.140  -0.528  -0.321  1.00  0.00     0.066 C 
HETATM    2  C2  UNL     1      -3.162  -1.697  -1.286  1.00  0.00     0.182 C 
HETATM    3  C3  UNL     1      -2.046  -2.652  -0.896  1.00  0.00     0.150 A 
HETATM    4  C4  UNL     1      -0.604  -2.072  -0.955  1.00  0.00     0.058 C 
HETATM    5  C5  UNL     1      -0.570  -0.751  -0.096  1.00  0.00     0.033 C 
HETATM    6  C6  UNL     1      -1.782   0.185  -0.363  1.00  0.00     0.127 C 
HETATM    7  C9  UNL     1       0.847  -0.057   0.121  1.00  0.00     0.005 C 
HETATM    8  C10 UNL     1       2.008  -0.931  -0.452  1.00  0.00     0.003 C 
HETATM    9  C11 UNL     1       1.867  -2.438  -0.200  1.00  0.00     0.033 C 
HETATM   10  C12 UNL     1       0.461  -3.010  -0.345  1.00  0.00     0.154 C 
HETATM   11  O3  UNL     1       0.560  -4.212  -1.076  1.00  0.00    -0.223 OA
HETATM   12  C13 UNL     1       3.446  -0.538  -0.038  1.00  0.00     0.000 C 
HETATM   13  C20 UNL     1       1.060   0.051   1.651  1.00  0.00     0.000 C 
HETATM   14  C21 UNL     1      -0.294  -1.824  -2.452  1.00  0.00     0.005 C 
HETATM   15  O6  UNL     1      -2.291  -4.077  -1.578  1.00  0.00    -0.351 OA
HETATM   16  C22 UNL     1      -2.374  -3.859  -0.189  1.00  0.00     0.172 A 
HETATM   17  O7  UNL     1      -4.448  -2.293  -1.272  1.00  0.00    -0.221 OA
ENDROOT
BRANCH   7  18
HETATM   18  C14 UNL     1       0.997   1.347  -0.568  1.00  0.00     0.038 C 
BRANCH  18  19
HETATM   19  C15 UNL     1       0.954   2.654   0.236  1.00  0.00     0.176 C 
HETATM   20  O4  UNL     1       0.918   3.742  -0.673  1.00  0.00    -0.218 OA
BRANCH  19  21
HETATM   21  C16 UNL     1       2.090   2.922   1.178  1.00  0.00     0.035 A 
HETATM   22  C17 UNL     1       2.018   3.149   2.498  1.00  0.00     0.027 A 
HETATM   23  C18 UNL     1       3.289   3.349   2.864  1.00  0.00     0.122 A 
HETATM   24  O5  UNL     1       4.058   3.273   1.907  1.00  0.00    -0.303 OA
HETATM   25  C19 UNL     1       3.394   3.032   0.899  1.00  0.00     0.121 A 
ENDBRANCH  19  21
ENDBRANCH  18  19
ENDBRANCH   7  18
BRANCH   6  26
HETATM   26  O1  UNL     1      -1.831   1.187   0.611  1.00  0.00    -0.304 OA
BRANCH  26  27
HETATM   27  C7  UNL     1      -2.537   2.320   0.338  1.00  0.00     0.272 C 
HETATM   28  C8  UNL     1      -2.565   3.244   1.541  1.00  0.00     0.106 C 
HETATM   29  O2  UNL     1      -3.085   2.568  -0.713  1.00  0.00    -0.264 OA
ENDBRANCH  26  27
ENDBRANCH   6  26
TORSDOF 5
