REMARK  2 active torsions:
REMARK  status: ('A' for Active; 'I' for Inactive)
REMARK    1  A    between atoms: C1_1  and  O3_17 
REMARK    2  A    between atoms: C4_4  and  C7_7 
ROOT
HETATM    1  C7  UNL     1      -1.019   0.377  -1.320  1.00  0.00     0.148 A 
HETATM    2  C8  UNL     1      -0.310   1.741  -1.165  1.00  0.00     0.063 A 
HETATM    3  C9  UNL     1       1.018   1.329  -1.725  1.00  0.00     0.005 A 
HETATM    4  C10 UNL     1       0.986   0.065  -2.156  1.00  0.00     0.091 A 
HETATM    5  C11 UNL     1       2.077  -0.491  -2.698  1.00  0.00     0.026 A 
HETATM    6  C12 UNL     1       3.197   0.246  -2.783  1.00  0.00     0.029 A 
HETATM    7  C13 UNL     1       3.249   1.518  -2.341  1.00  0.00     0.131 A 
HETATM    8  C14 UNL     1       2.137   2.059  -1.810  1.00  0.00     0.025 A 
HETATM    9  O1  UNL     1       4.396   2.246  -2.426  1.00  0.00    -0.190 OA
HETATM   10  O2  UNL     1      -0.100  -0.487  -1.996  1.00  0.00    -0.329 OA
ENDROOT
BRANCH   1  11
HETATM   11  C4  UNL     1      -1.403  -0.225   0.016  1.00  0.00     0.005 A 
HETATM   12  C3  UNL     1      -2.685  -0.428   0.360  1.00  0.00     0.000 A 
HETATM   13  C2  UNL     1      -2.998  -0.961   1.551  1.00  0.00     0.024 A 
HETATM   14  C1  UNL     1      -2.066  -1.319   2.457  1.00  0.00     0.094 A 
HETATM   15  C6  UNL     1      -0.785  -1.106   2.095  1.00  0.00     0.024 A 
HETATM   16  C5  UNL     1      -0.460  -0.575   0.907  1.00  0.00     0.000 A 
BRANCH  14  17
HETATM   17  O3  UNL     1      -2.476  -1.854   3.654  1.00  0.00    -0.328 OA
HETATM   18  C15 UNL     1      -1.500  -2.199   4.611  1.00  0.00     0.181 C 
ENDBRANCH  14  17
ENDBRANCH   1  11
TORSDOF 2
