REMARK  16 active torsions:
REMARK  status: ('A' for Active; 'I' for Inactive)
REMARK    1  A    between atoms: C1_1  and  C2_2 
REMARK    2  A    between atoms: C1_1  and  C5_5 
REMARK    3  A    between atoms: C2_2  and  C3_3 
REMARK    4  A    between atoms: C5_5  and  C6_6 
REMARK    5  A    between atoms: C7_7  and  C8_8 
REMARK    6  A    between atoms: C9_9  and  C10_10 
REMARK    7  A    between atoms: C10_10  and  O2_12 
REMARK    8  A    between atoms: O2_12  and  C11_13 
REMARK    9  A    between atoms: C17_19  and  O3_20 
REMARK   10  A    between atoms: O3_20  and  C18_21 
REMARK   11  A    between atoms: C20_25  and  O6_26 
REMARK   12  A    between atoms: O6_26  and  C21_27 
REMARK   13  A    between atoms: C26_33  and  C27_34 
REMARK   14  A    between atoms: C27_34  and  C28_35 
REMARK   15  A    between atoms: C28_35  and  C29_36 
REMARK   16  A    between atoms: C29_36  and  C30_37 
ROOT
HETATM    1  C11 UNL     1      -1.819   0.047  -2.740  1.00  0.00     0.146 C 
HETATM    2  C12 UNL     1      -0.567   0.927  -2.600  1.00  0.00     0.035 C 
HETATM    3  C13 UNL     1       0.636   0.279  -1.861  1.00  0.00     0.013 C 
HETATM    4  C14 UNL     1       0.974  -1.087  -2.520  1.00  0.00     0.100 C 
HETATM    5  C15 UNL     1      -0.282  -1.920  -2.547  1.00  0.00     0.017 C 
HETATM    6  C16 UNL     1      -1.520  -1.427  -2.662  1.00  0.00     0.000 C 
HETATM    7  C17 UNL     1       0.083  -3.351  -2.306  1.00  0.00     0.265 C 
HETATM    8  O5  UNL     1       1.189  -3.255  -1.429  1.00  0.00    -0.302 OA
HETATM    9  C20 UNL     1       1.861  -2.033  -1.679  1.00  0.00     0.250 C 
HETATM   10  C23 UNL     1       1.419  -0.807  -3.964  1.00  0.00     0.160 C 
HETATM   11  C24 UNL     1       2.433   0.337  -4.059  1.00  0.00     0.033 C 
HETATM   12  C25 UNL     1       2.997   0.817  -2.705  1.00  0.00     0.003 C 
HETATM   13  C26 UNL     1       1.890   1.226  -1.677  1.00  0.00     0.001 C 
HETATM   14  C33 UNL     1       1.510   2.709  -1.903  1.00  0.00     0.000 C 
HETATM   15  C34 UNL     1       4.099   1.860  -2.974  1.00  0.00     0.000 C 
HETATM   16  O8  UNL     1       1.894  -1.967  -4.602  1.00  0.00    -0.223 OA
ENDROOT
BRANCH   1  17
HETATM   17  O2  UNL     1      -2.763   0.365  -1.739  1.00  0.00    -0.296 OA
BRANCH  17  18
HETATM   18  C10 UNL     1      -3.472   1.528  -1.856  1.00  0.00     0.296 C 
HETATM   19  O1  UNL     1      -3.346   2.207  -2.854  1.00  0.00    -0.259 OA
BRANCH  18  20
HETATM   20  C9  UNL     1      -4.311   2.019  -0.901  1.00  0.00     0.068 C 
HETATM   21  C8  UNL     1      -4.627   1.495   0.297  1.00  0.00     0.005 C 
BRANCH  21  22
HETATM   22  C7  UNL     1      -4.202   0.354   0.865  1.00  0.00    -0.004 C 
HETATM   23  C6  UNL     1      -4.575  -0.106   2.074  1.00  0.00    -0.026 C 
BRANCH  23  24
HETATM   24  C5  UNL     1      -5.527   0.539   3.054  1.00  0.00     0.026 C 
BRANCH  24  25
HETATM   25  C1  UNL     1      -5.144   0.266   4.519  1.00  0.00     0.005 C 
BRANCH  25  26
HETATM   26  C2  UNL     1      -3.793   0.889   4.906  1.00  0.00     0.000 C 
BRANCH  26  27
HETATM   27  C3  UNL     1      -3.450   0.633   6.383  1.00  0.00     0.000 C 
HETATM   28  C4  UNL     1      -2.105   1.260   6.776  1.00  0.00     0.000 C 
ENDBRANCH  26  27
ENDBRANCH  25  26
ENDBRANCH  24  25
ENDBRANCH  23  24
ENDBRANCH  21  22
ENDBRANCH  18  20
ENDBRANCH  17  18
ENDBRANCH   1  17
BRANCH  13  29
HETATM   29  C27 UNL     1       2.425   1.073  -0.206  1.00  0.00     0.005 C 
BRANCH  29  30
HETATM   30  C28 UNL     1       3.067   2.275   0.516  1.00  0.00     0.026 C 
BRANCH  30  31
HETATM   31  C29 UNL     1       3.502   2.084   1.969  1.00  0.00    -0.022 C 
HETATM   32  C32 UNL     1       3.570   0.861   2.526  1.00  0.00    -0.005 C 
BRANCH  31  33
HETATM   33  C30 UNL     1       3.810   3.202   2.661  1.00  0.00    -0.004 C 
HETATM   34  C31 UNL     1       4.206   3.311   3.940  1.00  0.00    -0.000 C 
ENDBRANCH  31  33
ENDBRANCH  30  31
ENDBRANCH  29  30
ENDBRANCH  13  29
BRANCH   7  35
HETATM   35  O3  UNL     1      -0.860  -4.071  -1.528  1.00  0.00    -0.272 OA
BRANCH  35  36
HETATM   36  C18 UNL     1      -1.843  -4.728  -2.198  1.00  0.00     0.275 C 
HETATM   37  C19 UNL     1      -2.760  -5.432  -1.218  1.00  0.00     0.106 C 
HETATM   38  O4  UNL     1      -1.974  -4.741  -3.401  1.00  0.00    -0.264 OA
ENDBRANCH  35  36
ENDBRANCH   7  35
BRANCH   9  39
HETATM   39  O6  UNL     1       3.040  -2.430  -2.347  1.00  0.00    -0.275 OA
BRANCH  39  40
HETATM   40  C21 UNL     1       4.144  -2.910  -1.709  1.00  0.00     0.274 C 
HETATM   41  O7  UNL     1       5.152  -3.219  -2.309  1.00  0.00    -0.264 OA
HETATM   42  C22 UNL     1       4.062  -3.039  -0.199  1.00  0.00     0.106 C 
ENDBRANCH  39  40
ENDBRANCH   9  39
TORSDOF 16
