REMARK  11 active torsions:
REMARK  status: ('A' for Active; 'I' for Inactive)
REMARK    1  A    between atoms: C1_1  and  O8_38 
REMARK    2  A    between atoms: C6_6  and  C7_7 
REMARK    3  A    between atoms: C7_7  and  C8_8 
REMARK    4  A    between atoms: C9_9  and  C10_10 
REMARK    5  A    between atoms: C10_10  and  C11_11 
REMARK    6  A    between atoms: C11_11  and  C12_12 
REMARK    7  A    between atoms: C22_23  and  C24_26 
REMARK    8  A    between atoms: C24_26  and  C25_27 
REMARK    9  A    between atoms: C26_28  and  C27_29 
REMARK   10  A    between atoms: C27_29  and  O3_30 
REMARK   11  A    between atoms: O3_30  and  C28_31 
ROOT
HETATM    1  C1  UNL     1      -0.758   5.588   0.628  1.00  0.00     0.116 A 
HETATM    2  C2  UNL     1      -1.479   5.769   1.751  1.00  0.00     0.155 A 
HETATM    3  C3  UNL     1      -1.529   4.788   2.657  1.00  0.00     0.054 A 
HETATM    4  C4  UNL     1      -0.896   3.618   2.491  1.00  0.00     0.105 A 
HETATM    5  C5  UNL     1      -0.187   3.422   1.361  1.00  0.00     0.060 A 
HETATM    6  C6  UNL     1      -0.158   4.391   0.406  1.00  0.00     0.011 A 
HETATM    7  C17 UNL     1       0.452   2.219   1.220  1.00  0.00     0.201 A 
HETATM    8  C18 UNL     1       0.291   1.224   2.144  1.00  0.00     0.087 A 
HETATM    9  C19 UNL     1      -0.448   1.480   3.237  1.00  0.00     0.107 A 
HETATM   10  O1  UNL     1      -1.007   2.693   3.483  1.00  0.00    -0.307 OA
HETATM   11  C20 UNL     1      -0.635   0.489   4.121  1.00  0.00     0.052 A 
HETATM   12  C21 UNL     1      -0.118  -0.738   3.973  1.00  0.00     0.131 A 
HETATM   13  C22 UNL     1       0.641  -0.980   2.886  1.00  0.00     0.033 A 
HETATM   14  C23 UNL     1       0.842  -0.003   1.970  1.00  0.00     0.134 A 
HETATM   15  O2  UNL     1       1.574  -0.309   0.859  1.00  0.00    -0.190 OA
HETATM   16  O5  UNL     1      -0.395  -1.674   4.921  1.00  0.00    -0.190 OA
HETATM   17  O6  UNL     1       1.175   2.013   0.274  1.00  0.00    -0.286 OA
HETATM   18  O7  UNL     1      -2.151   6.935   1.958  1.00  0.00    -0.188 OA
ENDROOT
BRANCH   6  19
HETATM   19  C7  UNL     1       0.510   4.183  -0.958  1.00  0.00     0.054 C 
BRANCH  19  20
HETATM   20  C8  UNL     1      -0.121   3.029  -1.706  1.00  0.00    -0.030 C 
HETATM   21  C9  UNL     1       0.508   2.188  -2.548  1.00  0.00    -0.048 C 
HETATM   22  C16 UNL     1       1.956   2.333  -2.954  1.00  0.00     0.026 C 
BRANCH  21  23
HETATM   23  C10 UNL     1      -0.195   0.962  -3.093  1.00  0.00     0.026 C 
BRANCH  23  24
HETATM   24  C11 UNL     1      -0.680   1.125  -4.540  1.00  0.00     0.030 C 
BRANCH  24  25
HETATM   25  C12 UNL     1      -1.261  -0.182  -5.025  1.00  0.00    -0.034 C 
HETATM   26  C13 UNL     1      -0.783  -0.993  -5.987  1.00  0.00    -0.048 C 
HETATM   27  C14 UNL     1      -1.464  -2.306  -6.302  1.00  0.00     0.026 C 
HETATM   28  C15 UNL     1       0.444  -0.727  -6.826  1.00  0.00     0.026 C 
ENDBRANCH  24  25
ENDBRANCH  23  24
ENDBRANCH  21  23
ENDBRANCH  19  20
ENDBRANCH   6  19
BRANCH   1  29
HETATM   29  O8  UNL     1      -0.790   6.596  -0.306  1.00  0.00    -0.326 OA
HETATM   30  C31 UNL     1       0.298   7.489  -0.213  1.00  0.00     0.181 C 
ENDBRANCH   1  29
BRANCH  13  31
HETATM   31  C24 UNL     1       1.261  -2.352   2.638  1.00  0.00     0.056 C 
BRANCH  31  32
HETATM   32  C25 UNL     1       1.384  -3.273   3.825  1.00  0.00    -0.027 C 
HETATM   33  C26 UNL     1       0.767  -4.452   4.027  1.00  0.00    -0.018 C 
HETATM   34  C30 UNL     1       1.013  -5.239   5.296  1.00  0.00     0.029 C 
BRANCH  33  35
HETATM   35  C27 UNL     1      -0.204  -5.111   3.069  1.00  0.00     0.174 C 
BRANCH  35  36
HETATM   36  O3  UNL     1       0.345  -6.320   2.585  1.00  0.00    -0.297 OA
BRANCH  36  37
HETATM   37  C28 UNL     1      -0.410  -7.032   1.705  1.00  0.00     0.273 C 
HETATM   38  C29 UNL     1       0.298  -8.317   1.327  1.00  0.00     0.106 C 
HETATM   39  O4  UNL     1      -1.496  -6.694   1.292  1.00  0.00    -0.264 OA
ENDBRANCH  36  37
ENDBRANCH  35  36
ENDBRANCH  33  35
ENDBRANCH  31  32
ENDBRANCH  13  31
TORSDOF 11
