REMARK  2 active torsions:
REMARK  status: ('A' for Active; 'I' for Inactive)
REMARK    1  A    between atoms: C6_6  and  O2_21 
REMARK    2  A    between atoms: O2_21  and  C20_22 
ROOT
HETATM    1  C1  UNL     1      -3.832   1.389  -0.086  1.00  0.00    -0.003 C 
HETATM    2  C2  UNL     1      -4.585   0.311   0.220  1.00  0.00     0.013 C 
HETATM    3  C3  UNL     1      -3.722  -0.873   0.397  1.00  0.00     0.175 C 
HETATM    4  C4  UNL     1      -2.284  -0.472   0.061  1.00  0.00     0.115 C 
HETATM    5  C5  UNL     1      -2.409   1.025  -0.120  1.00  0.00     0.009 C 
HETATM    6  C6  UNL     1      -1.453   1.977  -0.266  1.00  0.00     0.092 C 
HETATM    7  C7  UNL     1       0.070   1.795  -0.319  1.00  0.00    -0.021 C 
HETATM    8  C8  UNL     1       0.779   0.780   0.620  1.00  0.00     0.024 C 
HETATM    9  C9  UNL     1       1.689  -0.300   0.025  1.00  0.00     0.004 A 
HETATM   10  C10 UNL     1       1.506  -1.799   0.218  1.00  0.00     0.000 A 
HETATM   11  C11 UNL     1       0.359  -2.412   1.008  1.00  0.00     0.003 C 
HETATM   12  C12 UNL     1      -0.736  -3.101   0.166  1.00  0.00     0.030 C 
HETATM   13  C13 UNL     1      -1.238  -2.492  -1.141  1.00  0.00     0.118 A 
HETATM   14  C14 UNL     1      -1.919  -1.224  -1.210  1.00  0.00     0.151 A 
HETATM   15  O1  UNL     1      -0.557  -1.104  -1.519  1.00  0.00    -0.356 OA
HETATM   16  C15 UNL     1      -1.366  -3.424  -2.336  1.00  0.00     0.032 C 
HETATM   17  C16 UNL     1       2.604  -1.072   0.963  1.00  0.00     0.000 A 
HETATM   18  C17 UNL     1       4.028  -1.320   0.475  1.00  0.00     0.000 C 
HETATM   19  C18 UNL     1       2.506  -0.882   2.471  1.00  0.00     0.000 C 
HETATM   20  C19 UNL     1       0.562   1.861  -1.776  1.00  0.00     0.028 C 
HETATM   21  O4  UNL     1      -4.090  -1.993   0.721  1.00  0.00    -0.291 OA
HETATM   22  C22 UNL     1      -6.076   0.300   0.373  1.00  0.00     0.034 C 
ENDROOT
BRANCH   6  23
HETATM   23  O2  UNL     1      -1.831   3.287  -0.439  1.00  0.00    -0.277 OA
BRANCH  23  24
HETATM   24  C20 UNL     1      -1.770   4.060   0.680  1.00  0.00     0.277 C 
HETATM   25  C21 UNL     1      -1.550   5.512   0.307  1.00  0.00     0.107 C 
HETATM   26  O3  UNL     1      -1.881   3.643   1.812  1.00  0.00    -0.264 OA
ENDBRANCH  23  24
ENDBRANCH   6  23
TORSDOF 2
