REMARK  10 active torsions:
REMARK  status: ('A' for Active; 'I' for Inactive)
REMARK    1  A    between atoms: C9_9  and  O3_21 
REMARK    2  A    between atoms: C10_10  and  O1_11 
REMARK    3  A    between atoms: O1_11  and  C11_12 
REMARK    4  A    between atoms: C11_12  and  C12_13 
REMARK    5  A    between atoms: O3_21  and  C18_22 
REMARK    6  A    between atoms: C18_22  and  C19_23 
REMARK    7  A    between atoms: C25_31  and  C33_41 
REMARK    8  A    between atoms: C26_32  and  C30_36 
REMARK    9  A    between atoms: C30_36  and  O5_37 
REMARK   10  A    between atoms: C33_41  and  O7_42 
ROOT
HETATM    1  C1  UNL     1      -2.861   0.537  -3.724  1.00  0.00     0.065 C 
HETATM    2  C2  UNL     1      -3.756  -0.325  -2.862  1.00  0.00     0.150 C 
HETATM    3  C3  UNL     1      -3.043  -1.194  -1.821  1.00  0.00     0.054 C 
HETATM    4  C4  UNL     1      -1.743  -0.461  -1.347  1.00  0.00     0.037 C 
HETATM    5  C5  UNL     1      -1.824   1.100  -1.389  1.00  0.00     0.004 C 
HETATM    6  C6  UNL     1      -2.069   1.537  -2.872  1.00  0.00     0.008 C 
HETATM    7  C7  UNL     1      -0.474   1.748  -0.915  1.00  0.00     0.007 C 
HETATM    8  C8  UNL     1       0.253   1.195   0.351  1.00  0.00     0.038 C 
HETATM    9  C9  UNL     1       0.261  -0.354   0.172  1.00  0.00     0.153 C 
HETATM   10  C10 UNL     1      -1.149  -0.941  -0.002  1.00  0.00     0.152 C 
HETATM   11  C25 UNL     1       1.723   1.779   0.345  1.00  0.00     0.101 C 
HETATM   12  C26 UNL     1       1.921   3.323   0.101  1.00  0.00     0.102 C 
HETATM   13  C27 UNL     1       0.897   3.865  -0.903  1.00  0.00    -0.035 C 
HETATM   14  C28 UNL     1      -0.495   3.283  -0.880  1.00  0.00     0.023 C 
HETATM   15  C29 UNL     1       1.151   4.933  -1.682  1.00  0.00    -0.009 C 
HETATM   16  C32 UNL     1       1.706   4.267   1.303  1.00  0.00     0.015 C 
HETATM   17  C35 UNL     1      -0.449   1.555   1.679  1.00  0.00     0.003 C 
HETATM   18  C36 UNL     1      -3.029   1.642  -0.580  1.00  0.00     0.000 C 
HETATM   19  C37 UNL     1      -2.739  -2.511  -2.580  1.00  0.00     0.007 C 
HETATM   20  C38 UNL     1      -4.048  -1.533  -0.697  1.00  0.00     0.007 C 
HETATM   21  O9  UNL     1      -4.954  -0.344  -3.033  1.00  0.00    -0.296 OA
ENDROOT
BRANCH   9  22
HETATM   22  O3  UNL     1       0.909  -0.978   1.235  1.00  0.00    -0.298 OA
BRANCH  22  23
HETATM   23  C18 UNL     1       1.747  -2.076   1.204  1.00  0.00     0.296 C 
HETATM   24  O4  UNL     1       2.218  -2.325   2.298  1.00  0.00    -0.259 OA
BRANCH  23  25
HETATM   25  C19 UNL     1       2.141  -2.930   0.200  1.00  0.00     0.063 A 
HETATM   26  C20 UNL     1       3.046  -3.895   0.488  1.00  0.00     0.006 A 
HETATM   27  C21 UNL     1       3.502  -4.769  -0.424  1.00  0.00     0.007 A 
HETATM   28  C22 UNL     1       3.056  -4.714  -1.685  1.00  0.00     0.035 A 
HETATM   29  C23 UNL     1       2.151  -3.780  -2.006  1.00  0.00     0.007 A 
HETATM   30 BR2  UNL     1       3.684  -5.933  -2.988  1.00  0.00    -0.049 Br
HETATM   31  C24 UNL     1       1.711  -2.914  -1.078  1.00  0.00     0.006 A 
ENDBRANCH  23  25
ENDBRANCH  22  23
ENDBRANCH   9  22
BRANCH  10  32
HETATM   32  O1  UNL     1      -1.070  -2.333   0.016  1.00  0.00    -0.298 OA
BRANCH  32  33
HETATM   33  C11 UNL     1      -1.441  -3.207   1.016  1.00  0.00     0.296 C 
HETATM   34  O2  UNL     1      -1.452  -4.365   0.639  1.00  0.00    -0.259 OA
BRANCH  33  35
HETATM   35  C12 UNL     1      -1.775  -3.023   2.335  1.00  0.00     0.063 A 
HETATM   36  C13 UNL     1      -2.195  -4.084   3.061  1.00  0.00     0.006 A 
HETATM   37  C14 UNL     1      -2.553  -3.985   4.352  1.00  0.00     0.007 A 
HETATM   38  C15 UNL     1      -2.490  -2.801   4.976  1.00  0.00     0.035 A 
HETATM   39  C16 UNL     1      -2.057  -1.733   4.293  1.00  0.00     0.007 A 
HETATM   40 BR1  UNL     1      -2.988  -2.641   6.794  1.00  0.00    -0.049 Br
HETATM   41  C17 UNL     1      -1.708  -1.854   3.001  1.00  0.00     0.006 A 
ENDBRANCH  33  35
ENDBRANCH  32  33
ENDBRANCH  10  32
BRANCH  11  42
HETATM   42  C33 UNL     1       2.587   1.301   1.523  1.00  0.00     0.272 C 
HETATM   43  O8  UNL     1       2.303   1.613   2.661  1.00  0.00    -0.264 OA
BRANCH  42  44
HETATM   44  O7  UNL     1       3.696   0.541   1.276  1.00  0.00    -0.299 OA
HETATM   45  C34 UNL     1       4.124   0.145  -0.003  1.00  0.00     0.184 C 
ENDBRANCH  42  44
ENDBRANCH  11  42
BRANCH  12  46
HETATM   46  C30 UNL     1       3.291   3.449  -0.623  1.00  0.00     0.275 C 
HETATM   47  O6  UNL     1       3.367   3.049  -1.768  1.00  0.00    -0.264 OA
BRANCH  46  48
HETATM   48  O5  UNL     1       4.363   4.071  -0.051  1.00  0.00    -0.299 OA
HETATM   49  C31 UNL     1       4.613   4.144   1.328  1.00  0.00     0.184 C 
ENDBRANCH  46  48
ENDBRANCH  12  46
TORSDOF 10
