REMARK  9 active torsions:
REMARK  status: ('A' for Active; 'I' for Inactive)
REMARK    1  A    between atoms: C3_3  and  O9_29 
REMARK    2  A    between atoms: C7_7  and  O6_23 
REMARK    3  A    between atoms: C9_9  and  O4_19 
REMARK    4  A    between atoms: C11_11  and  C13_15 
REMARK    5  A    between atoms: C13_15  and  O3_16 
REMARK    6  A    between atoms: O3_16  and  C14_17 
REMARK    7  A    between atoms: O4_19  and  C16_20 
REMARK    8  A    between atoms: O6_23  and  C18_24 
REMARK    9  A    between atoms: O9_29  and  C21_30 
ROOT
HETATM    1  C1  UNL     1      -1.739   3.248  -0.133  1.00  0.00     0.036 C 
HETATM    2  C2  UNL     1      -0.842   2.749  -1.259  1.00  0.00     0.155 C 
HETATM    3  C3  UNL     1      -1.079   1.247  -1.401  1.00  0.00     0.183 C 
HETATM    4  C4  UNL     1      -0.988   0.400  -0.096  1.00  0.00     0.174 C 
HETATM    5  C5  UNL     1      -1.103   1.135   1.273  1.00  0.00     0.179 C 
HETATM    6  C6  UNL     1      -1.244   2.676   1.195  1.00  0.00     0.038 C 
HETATM    7  C7  UNL     1       0.045   0.745   2.273  1.00  0.00     0.132 C 
HETATM    8  C8  UNL     1       1.403   0.962   1.559  1.00  0.00     0.065 C 
HETATM    9  C9  UNL     1       1.606   0.128   0.283  1.00  0.00     0.147 C 
HETATM   10  C10 UNL     1       0.279  -0.446  -0.121  1.00  0.00     0.016 C 
HETATM   11  C11 UNL     1       0.014  -1.720  -0.453  1.00  0.00     0.067 C 
HETATM   12  C12 UNL     1      -1.336  -1.786  -0.517  1.00  0.00     0.294 C 
HETATM   13  O1  UNL     1      -1.950  -2.800  -0.771  1.00  0.00    -0.259 OA
HETATM   14  O2  UNL     1      -1.970  -0.621  -0.211  1.00  0.00    -0.294 OA
HETATM   15  C20 UNL     1      -0.116  -0.699   2.782  1.00  0.00     0.033 C 
HETATM   16  O8  UNL     1      -2.304   0.730   1.888  1.00  0.00    -0.221 OA
HETATM   17  C23 UNL     1      -1.077   3.533  -2.555  1.00  0.00     0.036 C 
HETATM   18  O11 UNL     1       0.498   2.971  -0.910  1.00  0.00    -0.223 OA
ENDROOT
BRANCH   7  19
HETATM   19  O6  UNL     1      -0.082   1.657   3.330  1.00  0.00    -0.304 OA
BRANCH  19  20
HETATM   20  C18 UNL     1       0.245   1.518   4.646  1.00  0.00     0.272 C 
HETATM   21  O7  UNL     1      -0.210   2.272   5.481  1.00  0.00    -0.264 OA
HETATM   22  C19 UNL     1       1.317   0.520   5.043  1.00  0.00     0.106 C 
ENDBRANCH  19  20
ENDBRANCH   7  19
BRANCH   9  23
HETATM   23  O4  UNL     1       2.174   0.904  -0.746  1.00  0.00    -0.300 OA
BRANCH  23  24
HETATM   24  C16 UNL     1       2.874   0.270  -1.725  1.00  0.00     0.273 C 
HETATM   25  C17 UNL     1       3.291   1.261  -2.792  1.00  0.00     0.106 C 
HETATM   26  O5  UNL     1       3.106  -0.916  -1.762  1.00  0.00    -0.264 OA
ENDBRANCH  23  24
ENDBRANCH   9  23
BRANCH   3  27
HETATM   27  O9  UNL     1      -2.338   1.105  -2.020  1.00  0.00    -0.299 OA
BRANCH  27  28
HETATM   28  C21 UNL     1      -2.486   0.151  -2.982  1.00  0.00     0.273 C 
HETATM   29  C22 UNL     1      -3.926   0.098  -3.449  1.00  0.00     0.106 C 
HETATM   30  O10 UNL     1      -1.596  -0.558  -3.393  1.00  0.00    -0.264 OA
ENDBRANCH  27  28
ENDBRANCH   3  27
BRANCH  11  31
HETATM   31  C13 UNL     1       0.973  -2.865  -0.650  1.00  0.00     0.174 C 
BRANCH  31  32
HETATM   32  O3  UNL     1       0.480  -4.067  -0.089  1.00  0.00    -0.349 OA
BRANCH  32  33
HETATM   33  C14 UNL     1       1.397  -5.128  -0.205  1.00  0.00     0.143 C 
HETATM   34  C15 UNL     1       0.705  -6.426   0.201  1.00  0.00     0.035 C 
ENDBRANCH  32  33
ENDBRANCH  31  32
ENDBRANCH  11  31
TORSDOF 9
