REMARK  2 active torsions:
REMARK  status: ('A' for Active; 'I' for Inactive)
REMARK    1  A    between atoms: C11_13  and  O5_18 
REMARK    2  A    between atoms: C12_14  and  O4_16 
ROOT
HETATM    1  C1  UNL     1      -3.554   1.170  -0.537  1.00  0.00     0.000 A 
HETATM    2  C2  UNL     1      -4.115  -0.024  -0.301  1.00  0.00     0.000 A 
HETATM    3  C3  UNL     1      -3.341  -1.084  -0.016  1.00  0.00     0.003 A 
HETATM    4  C4  UNL     1      -2.000  -0.967   0.041  1.00  0.00     0.044 A 
HETATM    5  C5  UNL     1      -1.445   0.238  -0.195  1.00  0.00     0.026 A 
HETATM    6  C6  UNL     1      -2.220   1.298  -0.484  1.00  0.00     0.002 A 
HETATM    7  C7  UNL     1      -0.111   0.334  -0.132  1.00  0.00     0.107 A 
HETATM    8  C8  UNL     1       0.666  -0.717   0.151  1.00  0.00     0.091 A 
HETATM    9  C9  UNL     1       0.128  -1.937   0.394  1.00  0.00     0.238 A 
HETATM   10  C10 UNL     1      -1.226  -2.054   0.335  1.00  0.00     0.234 A 
HETATM   11  O1  UNL     1      -1.746  -3.131   0.546  1.00  0.00    -0.283 OA
HETATM   12  O2  UNL     1       0.813  -2.898   0.664  1.00  0.00    -0.283 OA
HETATM   13  C11 UNL     1       1.930  -0.246   0.128  1.00  0.00     0.145 A 
HETATM   14  C12 UNL     1       1.753   1.055  -0.189  1.00  0.00     0.222 A 
HETATM   15  O3  UNL     1       0.563   1.342  -0.322  1.00  0.00    -0.284 OA
ENDROOT
BRANCH  13  16
HETATM   16  O5  UNL     1       3.177  -0.788   0.282  1.00  0.00    -0.324 OA
HETATM   17  C14 UNL     1       3.388  -2.171   0.160  1.00  0.00     0.182 C 
ENDBRANCH  13  16
BRANCH  14  18
HETATM   18  O4  UNL     1       2.755   1.972  -0.367  1.00  0.00    -0.306 OA
HETATM   19  C13 UNL     1       2.531   3.220   0.246  1.00  0.00     0.184 C 
ENDBRANCH  14  18
TORSDOF 2
