REMARK  0 active torsions:
REMARK  status: ('A' for Active; 'I' for Inactive)
ROOT
HETATM    1  C1  UNL     1      -2.975   0.867  -0.259  1.00  0.00     0.156 A 
HETATM    2  C2  UNL     1      -3.252  -0.441  -0.129  1.00  0.00     0.156 A 
HETATM    3  C3  UNL     1      -2.238  -1.308   0.016  1.00  0.00     0.034 A 
HETATM    4  C4  UNL     1      -0.956  -0.901   0.041  1.00  0.00     0.059 A 
HETATM    5  C5  UNL     1      -0.666   0.415  -0.083  1.00  0.00     0.008 A 
HETATM    6  C6  UNL     1      -1.694   1.271  -0.232  1.00  0.00     0.030 A 
HETATM    7  C7  UNL     1       0.626   0.806  -0.052  1.00  0.00     0.016 A 
HETATM    8  C8  UNL     1       1.521  -0.177   0.102  1.00  0.00     0.067 A 
HETATM    9  N1  UNL     1       1.251  -1.411   0.217  1.00  0.00    -0.273 N 
HETATM   10  C9  UNL     1       0.050  -1.814   0.193  1.00  0.00     0.265 A 
HETATM   11  O1  UNL     1      -0.190  -2.995   0.305  1.00  0.00    -0.267 OA
HETATM   12  C10 UNL     1       2.345  -2.051   0.346  1.00  0.00     0.083 A 
HETATM   13  C11 UNL     1       3.382  -1.197   0.314  1.00  0.00     0.021 A 
HETATM   14  C12 UNL     1       2.841   0.017   0.156  1.00  0.00     0.018 A 
HETATM   15  C13 UNL     1       3.352   1.247   0.055  1.00  0.00     0.002 A 
HETATM   16  C14 UNL     1       2.478   2.258  -0.100  1.00  0.00     0.000 A 
HETATM   17  C15 UNL     1       1.148   2.045  -0.153  1.00  0.00     0.002 A 
HETATM   18  O2  UNL     1      -4.543  -0.868  -0.152  1.00  0.00    -0.188 OA
HETATM   19  O3  UNL     1      -3.998   1.752  -0.411  1.00  0.00    -0.188 OA
ENDROOT
TORSDOF 0
