REMARK  1 active torsions:
REMARK  status: ('A' for Active; 'I' for Inactive)
REMARK    1  A    between atoms: C3_3  and  O3_19 
ROOT
HETATM    1  C1  UNL     1      -3.067   0.093  -0.081  1.00  0.00     0.121 A 
HETATM    2  C2  UNL     1      -3.014  -1.236   0.001  1.00  0.00     0.141 A 
HETATM    3  C3  UNL     1      -1.867  -1.942   0.035  1.00  0.00     0.116 A 
HETATM    4  C4  UNL     1      -0.720  -1.204  -0.013  1.00  0.00     0.031 A 
HETATM    5  C5  UNL     1      -0.765   0.154  -0.037  1.00  0.00    -0.017 A 
HETATM    6  C6  UNL     1      -1.941   0.805  -0.111  1.00  0.00     0.022 A 
HETATM    7  C7  UNL     1       0.515   1.002  -0.058  1.00  0.00     0.078 C 
HETATM    8  C8  UNL     1       1.649   0.204   0.606  1.00  0.00     0.228 C 
HETATM    9  N1  UNL     1       1.752  -0.928  -0.291  1.00  0.00     0.140 N 
HETATM   10  C9  UNL     1       0.658  -1.853  -0.035  1.00  0.00     0.278 C 
HETATM   11  C10 UNL     1       1.713  -0.362  -1.636  1.00  0.00     0.251 C 
HETATM   12  C11 UNL     1       0.936   0.964  -1.544  1.00  0.00     0.044 C 
HETATM   13  C12 UNL     1       2.983   0.973   0.738  1.00  0.00     0.069 C 
HETATM   14  C13 UNL     1       2.870   2.484   0.523  1.00  0.00     0.183 C 
HETATM   15  C14 UNL     1       1.543   3.051   1.002  1.00  0.00     0.173 A 
HETATM   16  C15 UNL     1       0.384   2.323   0.706  1.00  0.00     0.150 A 
HETATM   17  O1  UNL     1       0.690   3.533  -0.187  1.00  0.00    -0.351 OA
HETATM   18  O2  UNL     1       3.939   3.117   1.211  1.00  0.00    -0.221 OA
HETATM   19  O4  UNL     1      -4.154  -1.702   0.024  1.00  0.00    -0.298 OA
HETATM   20  C17 UNL     1      -5.081  -0.619  -0.050  1.00  0.00     0.304 A 
HETATM   21  O5  UNL     1      -4.219   0.514  -0.120  1.00  0.00    -0.299 OA
ENDROOT
BRANCH   3  22
HETATM   22  O3  UNL     1      -2.059  -3.308   0.096  1.00  0.00    -0.326 OA
HETATM   23  C16 UNL     1      -1.032  -4.262   0.045  1.00  0.00     0.181 C 
ENDBRANCH   3  22
TORSDOF 1
