REMARK  1 active torsions:
REMARK  status: ('A' for Active; 'I' for Inactive)
REMARK    1  A    between atoms: C6_6  and  C7_7 
ROOT
HETATM    1  C1  UNL     1      -1.244   0.165  -0.158  1.00  0.00     0.024 C 
HETATM    2  C2  UNL     1      -1.625  -1.307  -0.419  1.00  0.00     0.071 C 
HETATM    3  C3  UNL     1      -0.731  -2.268   0.330  1.00  0.00     0.185 C 
HETATM    4  C4  UNL     1       0.754  -1.952   0.299  1.00  0.00     0.227 C 
HETATM    5  C5  UNL     1       1.122  -0.634  -0.347  1.00  0.00    -0.012 C 
HETATM    6  C6  UNL     1       0.229   0.363  -0.523  1.00  0.00    -0.017 C 
HETATM    7  C8  UNL     1       2.596  -0.513  -0.670  1.00  0.00     0.029 C 
HETATM    8  O2  UNL     1       1.302  -1.980   1.614  1.00  0.00    -0.211 OA
HETATM    9  O3  UNL     1      -1.170  -3.263   0.862  1.00  0.00    -0.293 OA
HETATM   10  C9  UNL     1      -2.201   1.019  -1.020  1.00  0.00     0.004 C 
HETATM   11  C10 UNL     1      -1.472   0.501   1.330  1.00  0.00     0.004 C 
ENDROOT
BRANCH   6  12
HETATM   12  C7  UNL     1       0.641   1.744  -0.998  1.00  0.00     0.204 C 
HETATM   13  O1  UNL     1       0.348   2.741  -0.028  1.00  0.00    -0.216 OA
ENDBRANCH   6  12
TORSDOF 1
