REMARK  0 active torsions:
REMARK  status: ('A' for Active; 'I' for Inactive)
ROOT
HETATM    1  C1  UNL     1      -1.243  -0.168   0.477  1.00  0.00     0.045 C 
HETATM    2  C2  UNL     1      -0.646  -1.430  -0.123  1.00  0.00     0.174 C 
HETATM    3  C3  UNL     1       0.852  -1.372  -0.053  1.00  0.00     0.005 C 
HETATM    4  C4  UNL     1       1.566  -0.236   0.014  1.00  0.00     0.011 C 
HETATM    5  C5  UNL     1       0.952   0.977   0.008  1.00  0.00     0.168 C 
HETATM    6  C6  UNL     1      -0.572   1.097  -0.087  1.00  0.00     0.058 C 
HETATM    7  C7  UNL     1      -1.054   2.317   0.727  1.00  0.00     0.008 C 
HETATM    8  C8  UNL     1      -0.934   1.316  -1.569  1.00  0.00     0.008 C 
HETATM    9  O1  UNL     1       1.619   1.987   0.052  1.00  0.00    -0.292 OA
HETATM   10  C9  UNL     1       3.078  -0.290   0.084  1.00  0.00     0.034 C 
HETATM   11  O2  UNL     1      -1.117  -2.557   0.594  1.00  0.00    -0.219 OA
ENDROOT
TORSDOF 0
