REMARK  1 active torsions:
REMARK  status: ('A' for Active; 'I' for Inactive)
REMARK    1  A    between atoms: C6_6  and  C7_7 
ROOT
HETATM    1  C1  UNL     1      -0.020   1.181  -0.308  1.00  0.00     0.038 A 
HETATM    2  C2  UNL     1       1.345   1.271   0.323  1.00  0.00     0.008 A 
HETATM    3  C3  UNL     1       1.918   0.286   1.022  1.00  0.00     0.165 A 
HETATM    4  C4  UNL     1       1.276  -0.896   1.197  1.00  0.00     0.216 A 
HETATM    5  C5  UNL     1       0.038  -1.130   0.684  1.00  0.00     0.014 A 
HETATM    6  C6  UNL     1      -0.617  -0.189  -0.028  1.00  0.00    -0.009 A 
HETATM    7  C8  UNL     1      -0.532  -2.510   0.957  1.00  0.00     0.034 C 
HETATM    8  O2  UNL     1       1.874  -1.737   1.831  1.00  0.00    -0.285 OA
HETATM    9  O3  UNL     1       3.157   0.409   1.576  1.00  0.00    -0.187 OA
HETATM   10  C9  UNL     1      -0.883   2.295   0.318  1.00  0.00     0.009 C 
HETATM   11  C10 UNL     1       0.155   1.398  -1.823  1.00  0.00     0.009 C 
ENDROOT
BRANCH   6  12
HETATM   12  C7  UNL     1      -1.981  -0.456  -0.630  1.00  0.00     0.205 C 
HETATM   13  O1  UNL     1      -1.887  -1.403  -1.687  1.00  0.00    -0.216 OA
ENDBRANCH   6  12
TORSDOF 1
