REMARK  1 active torsions:
REMARK  status: ('A' for Active; 'I' for Inactive)
REMARK    1  A    between atoms: C5_5  and  C8_8 
ROOT
HETATM    1  C1  UNL     1      -1.331   0.346   0.527  1.00  0.00     0.007 C 
HETATM    2  C2  UNL     1      -1.370  -0.982  -0.254  1.00  0.00     0.038 C 
HETATM    3  C3  UNL     1      -0.098  -1.794  -0.058  1.00  0.00     0.174 C 
HETATM    4  C4  UNL     1       1.151  -0.956  -0.057  1.00  0.00     0.008 C 
HETATM    5  C5  UNL     1       1.166   0.388   0.008  1.00  0.00     0.040 C 
HETATM    6  C6  UNL     1      -0.126   1.193   0.033  1.00  0.00     0.028 C 
HETATM    7  C7  UNL     1      -0.330   1.842  -1.351  1.00  0.00     0.005 C 
HETATM    8  O3  UNL     1      -0.006  -2.777  -1.072  1.00  0.00    -0.219 OA
HETATM    9  C9  UNL     1      -2.676   1.078   0.329  1.00  0.00     0.000 C 
HETATM   10  C10 UNL     1      -1.184   0.077   2.043  1.00  0.00     0.000 C 
ENDROOT
BRANCH   5  11
HETATM   11  C8  UNL     1       2.368   1.028   0.035  1.00  0.00     0.206 C 
HETATM   12  O1  UNL     1       2.425   2.235   0.100  1.00  0.00    -0.644 OA
HETATM   13  O2  UNL     1       3.560   0.391   0.001  1.00  0.00    -0.644 OA
ENDBRANCH   5  11
TORSDOF 1
