REMARK  9 active torsions:
REMARK  status: ('A' for Active; 'I' for Inactive)
REMARK    1  A    between atoms: C3_3  and  C22_27 
REMARK    2  A    between atoms: C4_4  and  C20_23 
REMARK    3  A    between atoms: C7_7  and  C12_12 
REMARK    4  A    between atoms: C7_7  and  C14_16 
REMARK    5  A    between atoms: C12_12  and  O1_13 
REMARK    6  A    between atoms: C14_16  and  C15_17 
REMARK    7  A    between atoms: C15_17  and  C16_18 
REMARK    8  A    between atoms: C20_23  and  O5_25 
REMARK    9  A    between atoms: C22_27  and  O6_28 
ROOT
HETATM    1  C1  UNL     1      -0.421  -2.036   1.858  1.00  0.00    -0.001 C 
HETATM    2  C2  UNL     1      -0.739  -3.020   1.004  1.00  0.00     0.002 C 
HETATM    3  C3  UNL     1      -0.901  -2.870  -0.327  1.00  0.00     0.053 C 
HETATM    4  C4  UNL     1      -0.752  -1.434  -0.917  1.00  0.00     0.117 C 
HETATM    5  C5  UNL     1       0.170  -0.559  -0.024  1.00  0.00    -0.024 C 
HETATM    6  C6  UNL     1      -0.060  -0.820   1.438  1.00  0.00    -0.007 C 
HETATM    7  C7  UNL     1       0.401   0.946  -0.398  1.00  0.00     0.094 C 
HETATM    8  C8  UNL     1       0.446   1.102  -1.948  1.00  0.00     0.013 C 
HETATM    9  C9  UNL     1       0.846  -0.220  -2.622  1.00  0.00     0.002 C 
HETATM   10  C10 UNL     1      -0.098  -1.399  -2.329  1.00  0.00     0.018 C 
HETATM   11  C11 UNL     1      -0.731   1.784  -2.666  1.00  0.00     0.001 C 
ENDROOT
BRANCH   7  12
HETATM   12  C12 UNL     1      -0.735   1.757   0.250  1.00  0.00     0.275 C 
HETATM   13  O2  UNL     1      -1.884   1.758  -0.128  1.00  0.00    -0.264 OA
BRANCH  12  14
HETATM   14  O1  UNL     1      -0.338   2.432   1.363  1.00  0.00    -0.299 OA
HETATM   15  C13 UNL     1      -1.340   3.103   2.089  1.00  0.00     0.184 C 
ENDBRANCH  12  14
ENDBRANCH   7  12
BRANCH   7  16
HETATM   16  C14 UNL     1       1.801   1.371   0.168  1.00  0.00     0.018 C 
BRANCH  16  17
HETATM   17  C15 UNL     1       2.299   2.808  -0.096  1.00  0.00     0.029 C 
BRANCH  17  18
HETATM   18  C16 UNL     1       3.481   3.130   0.772  1.00  0.00     0.005 A 
HETATM   19  C17 UNL     1       4.714   2.612   0.701  1.00  0.00     0.118 A 
HETATM   20  O3  UNL     1       5.458   3.083   1.560  1.00  0.00    -0.303 OA
HETATM   21  C18 UNL     1       4.812   3.896   2.221  1.00  0.00     0.122 A 
HETATM   22  C19 UNL     1       3.547   3.994   1.794  1.00  0.00     0.025 A 
ENDBRANCH  17  18
ENDBRANCH  16  17
ENDBRANCH   7  16
BRANCH   4  23
HETATM   23  C20 UNL     1      -2.210  -0.940  -0.964  1.00  0.00     0.279 C 
HETATM   24  O4  UNL     1      -2.843  -0.694  -1.967  1.00  0.00    -0.264 OA
BRANCH  23  25
HETATM   25  O5  UNL     1      -2.765  -0.926   0.281  1.00  0.00    -0.299 OA
HETATM   26  C21 UNL     1      -4.130  -0.591   0.356  1.00  0.00     0.184 C 
ENDBRANCH  23  25
ENDBRANCH   4  23
BRANCH   3  27
HETATM   27  C22 UNL     1      -1.315  -3.909  -1.126  1.00  0.00     0.293 C 
HETATM   28  O7  UNL     1      -1.549  -3.592  -2.275  1.00  0.00    -0.259 OA
BRANCH  27  29
HETATM   29  O6  UNL     1      -1.546  -5.242  -0.878  1.00  0.00    -0.296 OA
HETATM   30  C23 UNL     1      -1.337  -5.920   0.331  1.00  0.00     0.185 C 
ENDBRANCH  27  29
ENDBRANCH   3  27
TORSDOF 9
