REMARK  3 active torsions:
REMARK  status: ('A' for Active; 'I' for Inactive)
REMARK    1  A    between atoms: C3_3  and  C20_25 
REMARK    2  A    between atoms: C14_17  and  C16_19 
REMARK    3  A    between atoms: C20_25  and  O6_26 
ROOT
HETATM    1  C1  UNL     1      -2.732  -0.415  -0.821  1.00  0.00     0.056 C 
HETATM    2  C2  UNL     1      -2.889  -1.607   0.091  1.00  0.00    -0.022 C 
HETATM    3  C3  UNL     1      -1.850  -2.252   0.667  1.00  0.00     0.045 C 
HETATM    4  C4  UNL     1      -0.434  -1.697   0.410  1.00  0.00     0.104 C 
HETATM    5  C5  UNL     1      -0.511  -0.169   0.214  1.00  0.00     0.050 C 
HETATM    6  C6  UNL     1      -1.254  -0.175  -1.120  1.00  0.00     0.130 C 
HETATM    7  O1  UNL     1      -0.745  -1.258  -1.851  1.00  0.00    -0.304 OA
HETATM    8  C7  UNL     1      -0.149  -2.149  -1.014  1.00  0.00     0.275 C 
HETATM    9  O2  UNL     1       0.424  -3.163  -1.348  1.00  0.00    -0.264 OA
HETATM   10  C8  UNL     1       0.788   0.680   0.219  1.00  0.00     0.084 C 
HETATM   11  C9  UNL     1       1.690   0.240   1.394  1.00  0.00     0.009 C 
HETATM   12  C10 UNL     1       1.942  -1.276   1.341  1.00  0.00     0.001 C 
HETATM   13  C11 UNL     1       0.638  -2.075   1.439  1.00  0.00     0.014 C 
HETATM   14  C12 UNL     1       3.033   0.986   1.492  1.00  0.00     0.001 C 
HETATM   15  C13 UNL     1       1.572   0.641  -1.089  1.00  0.00     0.271 C 
HETATM   16  O3  UNL     1       1.802   1.893  -1.556  1.00  0.00    -0.300 OA
HETATM   17  C14 UNL     1       1.325   2.884  -0.686  1.00  0.00     0.149 C 
HETATM   18  C15 UNL     1       0.413   2.176   0.304  1.00  0.00     0.044 C 
HETATM   19  O5  UNL     1       1.952  -0.359  -1.656  1.00  0.00    -0.264 OA
ENDROOT
BRANCH  17  20
HETATM   20  C16 UNL     1       0.668   4.001  -1.447  1.00  0.00     0.032 A 
HETATM   21  C17 UNL     1      -0.389   3.926  -2.267  1.00  0.00     0.121 A 
HETATM   22  O4  UNL     1      -0.680   5.022  -2.742  1.00  0.00    -0.303 OA
HETATM   23  C18 UNL     1       0.117   5.852  -2.304  1.00  0.00     0.122 A 
HETATM   24  C19 UNL     1       1.009   5.297  -1.475  1.00  0.00     0.027 A 
ENDBRANCH  17  20
BRANCH   3  25
HETATM   25  C20 UNL     1      -2.122  -3.383   1.387  1.00  0.00     0.292 C 
HETATM   26  O7  UNL     1      -3.274  -3.747   1.506  1.00  0.00    -0.260 OA
BRANCH  25  27
HETATM   27  O6  UNL     1      -1.146  -4.164   1.934  1.00  0.00    -0.296 OA
HETATM   28  C21 UNL     1      -1.520  -5.424   2.440  1.00  0.00     0.185 C 
ENDBRANCH  25  27
ENDBRANCH   3  25
TORSDOF 3
