REMARK  4 active torsions:
REMARK  status: ('A' for Active; 'I' for Inactive)
REMARK    1  A    between atoms: C3_3  and  C20_22 
REMARK    2  A    between atoms: C7_7  and  C12_12 
REMARK    3  A    between atoms: C12_12  and  C13_13 
REMARK    4  A    between atoms: C13_13  and  C14_14 
ROOT
HETATM    1  C1  UNL     1       0.861   1.059  -2.698  1.00  0.00     0.005 C 
HETATM    2  C2  UNL     1      -0.360   0.378  -3.308  1.00  0.00     0.014 C 
HETATM    3  C3  UNL     1      -0.499  -1.058  -2.768  1.00  0.00     0.093 C 
HETATM    4  C4  UNL     1      -0.480  -1.069  -1.237  1.00  0.00    -0.043 C 
HETATM    5  C5  UNL     1       0.099  -0.085  -0.513  1.00  0.00    -0.052 C 
HETATM    6  C6  UNL     1       0.681   1.148  -1.182  1.00  0.00     0.021 C 
HETATM    7  C7  UNL     1       0.122  -0.108   1.024  1.00  0.00     0.022 C 
HETATM    8  C8  UNL     1       0.094  -1.585   1.522  1.00  0.00     0.004 C 
HETATM    9  C9  UNL     1      -1.111  -2.322   0.926  1.00  0.00     0.005 C 
HETATM   10  C10 UNL     1      -1.043  -2.326  -0.601  1.00  0.00     0.022 C 
HETATM   11  C11 UNL     1       1.387  -2.380   1.255  1.00  0.00     0.000 C 
HETATM   12  C18 UNL     1       1.407   0.538   1.595  1.00  0.00     0.004 C 
HETATM   13  C19 UNL     1      -1.812  -1.625  -3.355  1.00  0.00     0.015 C 
ENDROOT
BRANCH   7  14
HETATM   14  C12 UNL     1      -1.128   0.639   1.580  1.00  0.00     0.073 C 
BRANCH  14  15
HETATM   15  C13 UNL     1      -1.137   2.165   1.555  1.00  0.00     0.175 C 
HETATM   16  O2  UNL     1      -1.597   2.745   0.597  1.00  0.00    -0.291 OA
BRANCH  15  17
HETATM   17  C14 UNL     1      -0.682   2.882   2.613  1.00  0.00     0.061 A 
HETATM   18  C15 UNL     1      -0.639   4.219   2.704  1.00  0.00     0.032 A 
HETATM   19  C16 UNL     1      -0.112   4.439   3.915  1.00  0.00     0.123 A 
HETATM   20  O1  UNL     1       0.139   3.389   4.506  1.00  0.00    -0.303 OA
HETATM   21  C17 UNL     1      -0.182   2.449   3.779  1.00  0.00     0.126 A 
ENDBRANCH  15  17
ENDBRANCH  14  15
ENDBRANCH   7  14
BRANCH   3  22
HETATM   22  C20 UNL     1       0.650  -1.889  -3.346  1.00  0.00     0.188 C 
HETATM   23  O3  UNL     1       0.727  -2.307  -4.477  1.00  0.00    -0.647 OA
HETATM   24  O4  UNL     1       1.632  -2.136  -2.460  1.00  0.00    -0.647 OA
ENDBRANCH   3  22
TORSDOF 4
