REMARK  5 active torsions:
REMARK  status: ('A' for Active; 'I' for Inactive)
REMARK    1  A    between atoms: C3_3  and  C21_26 
REMARK    2  A    between atoms: C4_4  and  C19_22 
REMARK    3  A    between atoms: C13_14  and  C15_16 
REMARK    4  A    between atoms: C19_22  and  O5_24 
REMARK    5  A    between atoms: C21_26  and  O6_27 
ROOT
HETATM    1  C1  UNL     1      -2.916  -0.349  -0.247  1.00  0.00    -0.001 C 
HETATM    2  C2  UNL     1      -2.897  -1.609   0.214  1.00  0.00     0.002 C 
HETATM    3  C3  UNL     1      -1.769  -2.307   0.472  1.00  0.00     0.053 C 
HETATM    4  C4  UNL     1      -0.388  -1.654   0.299  1.00  0.00     0.117 C 
HETATM    5  C5  UNL     1      -0.524  -0.108   0.276  1.00  0.00    -0.024 C 
HETATM    6  C6  UNL     1      -1.798   0.381  -0.349  1.00  0.00    -0.007 C 
HETATM    7  C7  UNL     1       0.750   0.737   0.030  1.00  0.00     0.097 C 
HETATM    8  C8  UNL     1       1.985  -0.018   0.582  1.00  0.00     0.013 C 
HETATM    9  C9  UNL     1       1.587  -0.824   1.831  1.00  0.00     0.002 C 
HETATM   10  C10 UNL     1       0.471  -1.870   1.592  1.00  0.00     0.018 C 
HETATM   11  C11 UNL     1       3.244   0.826   0.849  1.00  0.00     0.001 C 
HETATM   12  C12 UNL     1       0.942   1.013  -1.454  1.00  0.00     0.275 C 
HETATM   13  O1  UNL     1       1.188   2.329  -1.668  1.00  0.00    -0.299 OA
HETATM   14  C13 UNL     1       1.201   3.067  -0.474  1.00  0.00     0.149 C 
HETATM   15  C14 UNL     1       0.592   2.166   0.590  1.00  0.00     0.048 C 
HETATM   16  O3  UNL     1       0.883   0.181  -2.331  1.00  0.00    -0.264 OA
ENDROOT
BRANCH   4  17
HETATM   17  C19 UNL     1       0.367  -2.335  -0.875  1.00  0.00     0.279 C 
HETATM   18  O4  UNL     1       1.480  -2.790  -0.703  1.00  0.00    -0.264 OA
BRANCH  17  19
HETATM   19  O5  UNL     1      -0.292  -2.662  -2.026  1.00  0.00    -0.299 OA
HETATM   20  C20 UNL     1      -1.415  -1.994  -2.535  1.00  0.00     0.184 C 
ENDBRANCH  17  19
ENDBRANCH   4  17
BRANCH  14  21
HETATM   21  C15 UNL     1       0.508   4.389  -0.649  1.00  0.00     0.032 A 
HETATM   22  C16 UNL     1      -0.793   4.618  -0.872  1.00  0.00     0.121 A 
HETATM   23  O2  UNL     1      -1.038   5.819  -0.974  1.00  0.00    -0.303 OA
HETATM   24  C17 UNL     1       0.018   6.436  -0.842  1.00  0.00     0.122 A 
HETATM   25  C18 UNL     1       1.053   5.614  -0.633  1.00  0.00     0.027 A 
ENDBRANCH  14  21
BRANCH   3  26
HETATM   26  C21 UNL     1      -1.889  -3.626   0.817  1.00  0.00     0.293 C 
HETATM   27  O7  UNL     1      -2.991  -4.128   0.895  1.00  0.00    -0.259 OA
BRANCH  26  28
HETATM   28  O6  UNL     1      -0.798  -4.429   0.994  1.00  0.00    -0.296 OA
HETATM   29  C22 UNL     1      -1.007  -5.820   1.030  1.00  0.00     0.185 C 
ENDBRANCH  26  28
ENDBRANCH   3  26
TORSDOF 5
