REMARK  4 active torsions:
REMARK  status: ('A' for Active; 'I' for Inactive)
REMARK    1  A    between atoms: C7_7  and  C12_13 
REMARK    2  A    between atoms: C12_13  and  C13_14 
REMARK    3  A    between atoms: C13_14  and  C14_15 
REMARK    4  A    between atoms: C16_17  and  C17_18 
ROOT
HETATM    1  C1  UNL     1      -1.577  -1.541   2.446  1.00  0.00     0.000 C 
HETATM    2  C2  UNL     1      -1.241  -3.014   2.213  1.00  0.00     0.000 C 
HETATM    3  C3  UNL     1      -0.539  -3.299   0.859  1.00  0.00     0.002 C 
HETATM    4  C4  UNL     1       0.703  -2.357   0.696  1.00  0.00     0.031 C 
HETATM    5  C5  UNL     1       0.497  -0.851   1.062  1.00  0.00     0.006 C 
HETATM    6  C6  UNL     1      -0.293  -0.711   2.389  1.00  0.00     0.000 C 
HETATM    7  C7  UNL     1      -0.237  -0.077  -0.078  1.00  0.00     0.019 C 
HETATM    8  C8  UNL     1      -0.046  -0.741  -1.427  1.00  0.00    -0.042 C 
HETATM    9  C9  UNL     1       1.290  -1.390  -1.649  1.00  0.00     0.055 C 
HETATM   10  C10 UNL     1       1.560  -2.460  -0.588  1.00  0.00     0.156 C 
HETATM   11  O1  UNL     1       1.485  -3.726  -1.193  1.00  0.00    -0.223 OA
HETATM   12  C11 UNL     1      -0.996  -0.748  -2.377  1.00  0.00    -0.009 C 
HETATM   13  C18 UNL     1       1.887  -0.220   1.369  1.00  0.00     0.000 C 
HETATM   14  C19 UNL     1      -0.133  -4.798   0.943  1.00  0.00     0.000 C 
HETATM   15  C20 UNL     1      -1.576  -3.193  -0.276  1.00  0.00     0.000 C 
ENDROOT
BRANCH   7  16
HETATM   16  C12 UNL     1       0.075   1.435  -0.155  1.00  0.00     0.008 C 
BRANCH  16  17
HETATM   17  C13 UNL     1      -0.913   2.239  -1.018  1.00  0.00     0.022 C 
BRANCH  17  18
HETATM   18  C14 UNL     1      -0.813   3.749  -0.914  1.00  0.00    -0.046 C 
HETATM   19  C15 UNL     1      -2.112   4.478  -1.176  1.00  0.00     0.026 C 
HETATM   20  C16 UNL     1       0.340   4.390  -0.650  1.00  0.00     0.001 C 
BRANCH  20  21
HETATM   21  C17 UNL     1       0.494   5.885  -0.554  1.00  0.00     0.208 C 
HETATM   22  O2  UNL     1       1.851   6.255  -0.337  1.00  0.00    -0.215 OA
ENDBRANCH  20  21
ENDBRANCH  17  18
ENDBRANCH  16  17
ENDBRANCH   7  16
TORSDOF 4
