REMARK  0 active torsions:
REMARK  status: ('A' for Active; 'I' for Inactive)
ROOT
HETATM    1  C1  UNL     1      -3.142   0.669  -1.481  1.00  0.00     0.119 A 
HETATM    2  C2  UNL     1      -3.111  -0.667  -1.484  1.00  0.00     0.119 A 
HETATM    3  C3  UNL     1      -1.946  -1.325  -1.503  1.00  0.00     0.024 A 
HETATM    4  C4  UNL     1      -0.794  -0.625  -1.508  1.00  0.00     0.007 A 
HETATM    5  C5  UNL     1      -0.831   0.725  -1.506  1.00  0.00    -0.020 A 
HETATM    6  C6  UNL     1      -2.009   1.379  -1.495  1.00  0.00     0.022 A 
HETATM    7  C7  UNL     1       0.448   1.526  -1.507  1.00  0.00     0.064 C 
HETATM    8  C8  UNL     1       1.658   0.671  -1.097  1.00  0.00     0.246 C 
HETATM    9  N1  UNL     1       1.631  -0.534  -1.910  1.00  0.00     0.144 N 
HETATM   10  C9  UNL     1       0.529  -1.381  -1.479  1.00  0.00     0.246 C 
HETATM   11  C10 UNL     1       0.762  -1.918  -0.059  1.00  0.00     0.064 C 
HETATM   12  C11 UNL     1       1.175  -0.809   0.878  1.00  0.00    -0.020 A 
HETATM   13  C12 UNL     1       1.599   0.381   0.397  1.00  0.00     0.007 A 
HETATM   14  C13 UNL     1       1.954   1.358   1.255  1.00  0.00     0.024 A 
HETATM   15  C14 UNL     1       1.876   1.135   2.572  1.00  0.00     0.119 A 
HETATM   16  C15 UNL     1       1.456  -0.043   3.042  1.00  0.00     0.119 A 
HETATM   17  C16 UNL     1       1.106  -1.026   2.206  1.00  0.00     0.022 A 
HETATM   18  O1  UNL     1       1.449  -0.058   4.270  1.00  0.00    -0.300 OA
HETATM   19  C17 UNL     1       1.897   1.224   4.714  1.00  0.00     0.304 A 
HETATM   20  O2  UNL     1       2.148   1.909   3.485  1.00  0.00    -0.300 OA
HETATM   21  C18 UNL     1       2.917  -1.214  -1.924  1.00  0.00     0.286 C 
HETATM   22  O3  UNL     1      -4.244  -1.141  -1.464  1.00  0.00    -0.300 OA
HETATM   23  C19 UNL     1      -5.162  -0.046  -1.439  1.00  0.00     0.304 A 
HETATM   24  O4  UNL     1      -4.295   1.089  -1.462  1.00  0.00    -0.300 OA
ENDROOT
TORSDOF 0
