REMARK  2 active torsions:
REMARK  status: ('A' for Active; 'I' for Inactive)
REMARK    1  A    between atoms: C10_11  and  C19_22 
REMARK    2  A    between atoms: C19_22  and  C20_23 
ROOT
HETATM    1  C1  UNL     1      -5.038  -1.362  -0.478  1.00  0.00     0.131 A 
HETATM    2  C2  UNL     1      -4.938  -0.274   0.301  1.00  0.00     0.029 A 
HETATM    3  C3  UNL     1      -3.741   0.264   0.570  1.00  0.00     0.027 A 
HETATM    4  C4  UNL     1      -2.603  -0.253   0.073  1.00  0.00     0.103 A 
HETATM    5  C5  UNL     1      -2.692  -1.341  -0.710  1.00  0.00     0.064 A 
HETATM    6  C6  UNL     1      -3.900  -1.879  -0.971  1.00  0.00     0.033 A 
HETATM    7  C7  UNL     1      -1.559  -1.883  -1.237  1.00  0.00     0.201 A 
HETATM    8  C8  UNL     1      -0.346  -1.303  -0.982  1.00  0.00     0.087 A 
HETATM    9  C9  UNL     1      -0.296  -0.207  -0.198  1.00  0.00     0.103 A 
HETATM   10  O1  UNL     1      -1.414   0.330   0.369  1.00  0.00    -0.307 OA
HETATM   11  C10 UNL     1       0.897   0.382   0.037  1.00  0.00     0.028 A 
HETATM   12  C11 UNL     1       2.039  -0.115  -0.484  1.00  0.00     0.094 A 
HETATM   13  C12 UNL     1       1.970  -1.237  -1.231  1.00  0.00     0.047 A 
HETATM   14  C13 UNL     1       0.786  -1.825  -1.507  1.00  0.00     0.138 A 
HETATM   15  O2  UNL     1       0.752  -2.953  -2.276  1.00  0.00    -0.190 OA
HETATM   16  C14 UNL     1       3.119  -1.736  -1.730  1.00  0.00     0.002 C 
HETATM   17  C15 UNL     1       4.309  -1.256  -1.352  1.00  0.00     0.001 C 
HETATM   18  C16 UNL     1       4.403  -0.226  -0.263  1.00  0.00     0.117 C 
HETATM   19  O3  UNL     1       3.224   0.520  -0.199  1.00  0.00    -0.332 OA
HETATM   20  C17 UNL     1       4.607  -0.934   1.082  1.00  0.00     0.035 C 
HETATM   21  C18 UNL     1       5.558   0.743  -0.531  1.00  0.00     0.035 C 
HETATM   22  O4  UNL     1      -1.676  -2.867  -1.935  1.00  0.00    -0.286 OA
HETATM   23  O5  UNL     1      -6.244  -1.923  -0.766  1.00  0.00    -0.190 OA
ENDROOT
BRANCH  11  24
HETATM   24  C19 UNL     1       0.980   1.618   0.931  1.00  0.00     0.056 C 
BRANCH  24  25
HETATM   25  C20 UNL     1      -0.145   2.612   0.774  1.00  0.00    -0.030 C 
HETATM   26  C21 UNL     1      -1.002   3.038   1.721  1.00  0.00    -0.048 C 
HETATM   27  C22 UNL     1      -2.093   4.031   1.390  1.00  0.00     0.026 C 
HETATM   28  C23 UNL     1      -0.999   2.594   3.165  1.00  0.00     0.026 C 
ENDBRANCH  24  25
ENDBRANCH  11  24
TORSDOF 2
