REMARK  4 active torsions:
REMARK  status: ('A' for Active; 'I' for Inactive)
REMARK    1  A    between atoms: C5_5  and  C12_12 
REMARK    2  A    between atoms: C6_6  and  C7_7 
REMARK    3  A    between atoms: C7_7  and  C8_8 
REMARK    4  A    between atoms: C12_12  and  C13_13 
ROOT
HETATM    1  C13 UNL     1      -0.659  -1.514   0.225  1.00  0.00     0.087 A 
HETATM    2  C14 UNL     1      -1.977  -1.569  -0.121  1.00  0.00     0.101 A 
HETATM    3  C15 UNL     1      -2.744  -2.596   0.322  1.00  0.00     0.048 A 
HETATM    4  C16 UNL     1      -2.232  -3.575   1.091  1.00  0.00     0.135 A 
HETATM    5  C17 UNL     1      -0.954  -3.453   1.468  1.00  0.00     0.055 A 
HETATM    6  C18 UNL     1      -0.156  -2.459   1.054  1.00  0.00     0.138 A 
HETATM    7  O1  UNL     1       1.087  -2.410   1.615  1.00  0.00    -0.190 OA
HETATM    8  O2  UNL     1      -2.968  -4.617   1.569  1.00  0.00    -0.190 OA
HETATM    9  C19 UNL     1      -4.039  -2.669  -0.043  1.00  0.00     0.002 C 
HETATM   10  C20 UNL     1      -4.635  -1.655  -0.679  1.00  0.00     0.001 C 
HETATM   11  C21 UNL     1      -3.896  -0.365  -0.874  1.00  0.00     0.117 C 
HETATM   12  O3  UNL     1      -2.521  -0.605  -0.941  1.00  0.00    -0.331 OA
HETATM   13  C22 UNL     1      -4.317   0.317  -2.178  1.00  0.00     0.035 C 
HETATM   14  C23 UNL     1      -4.175   0.559   0.319  1.00  0.00     0.035 C 
ENDROOT
BRANCH   1  15
HETATM   15  C12 UNL     1       0.124  -0.473  -0.218  1.00  0.00     0.199 C 
HETATM   16  O4  UNL     1      -0.415   0.554  -0.564  1.00  0.00    -0.286 OA
BRANCH  15  17
HETATM   17  C5  UNL     1       1.484  -0.512  -0.395  1.00  0.00     0.037 A 
HETATM   18  C4  UNL     1       2.072  -1.696  -0.662  1.00  0.00     0.003 A 
HETATM   19  C3  UNL     1       3.382  -1.800  -0.913  1.00  0.00     0.002 A 
HETATM   20  C2  UNL     1       4.119  -0.687  -0.956  1.00  0.00     0.027 A 
HETATM   21  C1  UNL     1       3.573   0.517  -0.723  1.00  0.00     0.127 A 
HETATM   22  C6  UNL     1       2.253   0.611  -0.428  1.00  0.00     0.011 A 
HETATM   23  O5  UNL     1       4.380   1.610  -0.843  1.00  0.00    -0.191 OA
BRANCH  22  24
HETATM   24  C7  UNL     1       1.692   1.997  -0.103  1.00  0.00     0.054 C 
BRANCH  24  25
HETATM   25  C8  UNL     1       2.604   2.895   0.699  1.00  0.00    -0.030 C 
HETATM   26  C9  UNL     1       2.858   4.196   0.469  1.00  0.00    -0.048 C 
HETATM   27  C10 UNL     1       3.820   4.966   1.345  1.00  0.00     0.026 C 
HETATM   28  C11 UNL     1       2.238   5.023  -0.633  1.00  0.00     0.026 C 
ENDBRANCH  24  25
ENDBRANCH  22  24
ENDBRANCH  15  17
ENDBRANCH   1  15
TORSDOF 4
