REMARK  5 active torsions:
REMARK  status: ('A' for Active; 'I' for Inactive)
REMARK    1  A    between atoms: C5_5  and  C12_12 
REMARK    2  A    between atoms: C6_6  and  C7_7 
REMARK    3  A    between atoms: C7_7  and  C8_8 
REMARK    4  A    between atoms: C12_12  and  C13_13 
REMARK    5  A    between atoms: C16_16  and  O2_20 
ROOT
HETATM    1  C1  UNL     1       3.349   0.819  -0.276  1.00  0.00     0.127 A 
HETATM    2  C2  UNL     1       3.891  -0.408  -0.282  1.00  0.00     0.027 A 
HETATM    3  C3  UNL     1       3.120  -1.495  -0.197  1.00  0.00     0.002 A 
HETATM    4  C4  UNL     1       1.793  -1.343  -0.116  1.00  0.00     0.003 A 
HETATM    5  C5  UNL     1       1.206  -0.129  -0.068  1.00  0.00     0.037 A 
HETATM    6  C6  UNL     1       2.007   0.964  -0.171  1.00  0.00     0.011 A 
HETATM    7  O5  UNL     1       4.173   1.895  -0.422  1.00  0.00    -0.191 OA
ENDROOT
BRANCH   5   8
HETATM    8  C12 UNL     1      -0.162  -0.046  -0.023  1.00  0.00     0.199 C 
HETATM    9  O4  UNL     1      -0.672   0.961  -0.463  1.00  0.00    -0.286 OA
BRANCH   8  10
HETATM   10  C13 UNL     1      -0.999  -1.035   0.430  1.00  0.00     0.090 A 
HETATM   11  C14 UNL     1      -2.264  -1.085  -0.055  1.00  0.00     0.138 A 
HETATM   12  C15 UNL     1      -3.085  -2.071   0.341  1.00  0.00     0.052 A 
HETATM   13  O3  UNL     1      -2.747  -0.232  -1.006  1.00  0.00    -0.190 OA
HETATM   14  C16 UNL     1      -2.757  -3.010   1.242  1.00  0.00     0.098 A 
HETATM   15  C17 UNL     1      -1.519  -2.890   1.749  1.00  0.00     0.052 A 
HETATM   16  C18 UNL     1      -0.643  -1.939   1.376  1.00  0.00     0.138 A 
HETATM   17  O1  UNL     1       0.527  -1.889   2.079  1.00  0.00    -0.190 OA
BRANCH  14  18
HETATM   18  O2  UNL     1      -3.674  -3.980   1.568  1.00  0.00    -0.328 OA
HETATM   19  C19 UNL     1      -3.261  -5.058   2.375  1.00  0.00     0.181 C 
ENDBRANCH  14  18
ENDBRANCH   8  10
ENDBRANCH   5   8
BRANCH   6  20
HETATM   20  C7  UNL     1       1.490   2.400  -0.137  1.00  0.00     0.054 C 
BRANCH  20  21
HETATM   21  C8  UNL     1       1.239   2.912  -1.533  1.00  0.00    -0.030 C 
HETATM   22  C9  UNL     1       0.576   4.038  -1.851  1.00  0.00    -0.048 C 
HETATM   23  C10 UNL     1       0.361   4.443  -3.291  1.00  0.00     0.026 C 
HETATM   24  C11 UNL     1      -0.014   4.987  -0.836  1.00  0.00     0.026 C 
ENDBRANCH  20  21
ENDBRANCH   6  20
TORSDOF 5
