REMARK  3 active torsions:
REMARK  status: ('A' for Active; 'I' for Inactive)
REMARK    1  A    between atoms: C7_8  and  O4_17 
REMARK    2  A    between atoms: O4_17  and  C14_18 
REMARK    3  A    between atoms: C15_20  and  C19_27 
ROOT
HETATM    1  C1  UNL     1      -1.279  -0.467  -3.827  1.00  0.00     0.058 C 
HETATM    2  C2  UNL     1      -0.702  -1.833  -4.052  1.00  0.00    -0.032 C 
HETATM    3  C3  UNL     1       0.183  -2.430  -3.233  1.00  0.00    -0.046 C 
HETATM    4  C4  UNL     1       0.703  -1.763  -1.966  1.00  0.00     0.051 C 
HETATM    5  C5  UNL     1       0.416  -0.236  -1.921  1.00  0.00     0.059 C 
HETATM    6  C6  UNL     1      -1.046  -0.043  -2.380  1.00  0.00     0.159 C 
HETATM    7  O1  UNL     1      -1.919  -0.826  -1.595  1.00  0.00    -0.223 OA
HETATM    8  C7  UNL     1       0.741   0.343  -0.508  1.00  0.00     0.121 C 
HETATM    9  C8  UNL     1       1.616  -0.613   0.319  1.00  0.00     0.033 C 
HETATM   10  C9  UNL     1       2.749  -1.232  -0.504  1.00  0.00     0.040 C 
HETATM   11  C10 UNL     1       2.175  -2.075  -1.645  1.00  0.00     0.129 C 
HETATM   12  O2  UNL     1       2.308  -3.413  -1.253  1.00  0.00    -0.304 OA
HETATM   13  C11 UNL     1       3.075  -3.573  -0.150  1.00  0.00     0.271 C 
HETATM   14  C12 UNL     1       3.639  -2.229   0.251  1.00  0.00     0.089 C 
HETATM   15  C13 UNL     1       3.755  -2.045   1.767  1.00  0.00     0.011 C 
HETATM   16  O3  UNL     1       3.285  -4.631   0.401  1.00  0.00    -0.264 OA
HETATM   17  C20 UNL     1       1.333   0.503  -2.934  1.00  0.00     0.005 C 
HETATM   18  C21 UNL     1       0.618  -3.847  -3.529  1.00  0.00     0.026 C 
ENDROOT
BRANCH   8  19
HETATM   19  O4  UNL     1      -0.398   0.606   0.267  1.00  0.00    -0.331 OA
BRANCH  19  20
HETATM   20  C14 UNL     1      -0.880   1.930   0.234  1.00  0.00     0.270 C 
HETATM   21  O5  UNL     1      -0.203   2.680   1.221  1.00  0.00    -0.326 OA
HETATM   22  C15 UNL     1      -0.503   2.398   2.564  1.00  0.00     0.184 C 
HETATM   23  C16 UNL     1      -1.993   2.239   2.850  1.00  0.00     0.215 C 
HETATM   24  C17 UNL     1      -2.735   1.419   1.811  1.00  0.00     0.220 C 
HETATM   25  O8  UNL     1      -2.588   3.519   2.909  1.00  0.00    -0.218 OA
HETATM   26  C18 UNL     1      -2.380   1.935   0.433  1.00  0.00     0.241 C 
HETATM   27  O7  UNL     1      -2.392   0.053   1.909  1.00  0.00    -0.218 OA
HETATM   28  O6  UNL     1      -2.868   3.246   0.274  1.00  0.00    -0.215 OA
BRANCH  22  29
HETATM   29  C19 UNL     1       0.375   1.286   3.126  1.00  0.00     0.214 C 
HETATM   30  O9  UNL     1       0.378   1.339   4.539  1.00  0.00    -0.218 OA
ENDBRANCH  22  29
ENDBRANCH  19  20
ENDBRANCH   8  19
TORSDOF 3
