REMARK  3 active torsions:
REMARK  status: ('A' for Active; 'I' for Inactive)
REMARK    1  A    between atoms: C7_7  and  O1_9 
REMARK    2  A    between atoms: O1_9  and  C9_10 
REMARK    3  A    between atoms: C10_12  and  C14_19 
ROOT
HETATM    1  C1  UNL     1      -0.294  -1.359   1.253  1.00  0.00     0.036 C 
HETATM    2  C2  UNL     1      -0.462  -2.906   1.238  1.00  0.00     0.052 C 
HETATM    3  C3  UNL     1       0.148  -3.688   0.085  1.00  0.00     0.146 A 
HETATM    4  C4  UNL     1       1.588  -3.304  -0.117  1.00  0.00    -0.015 A 
HETATM    5  C5  UNL     1       1.988  -1.907  -0.489  1.00  0.00     0.027 C 
HETATM    6  C6  UNL     1       0.805  -1.129  -1.086  1.00  0.00     0.032 C 
HETATM    7  C7  UNL     1      -0.307  -0.612  -0.118  1.00  0.00     0.096 C 
HETATM    8  C8  UNL     1      -1.642  -0.781  -0.867  1.00  0.00     0.030 C 
HETATM    9  C15 UNL     1       2.377  -4.364   0.090  1.00  0.00     0.036 A 
HETATM   10  C16 UNL     1       1.541  -5.388   0.384  1.00  0.00     0.291 A 
HETATM   11  O7  UNL     1       0.212  -5.069   0.392  1.00  0.00    -0.297 OA
HETATM   12  O8  UNL     1       1.941  -6.506   0.624  1.00  0.00    -0.260 OA
HETATM   13  C17 UNL     1       3.873  -4.432   0.017  1.00  0.00     0.036 C 
HETATM   14  C18 UNL     1      -1.947  -3.074   1.433  1.00  0.00    -0.046 C 
HETATM   15  C19 UNL     1      -2.463  -1.984   2.011  1.00  0.00    -0.034 C 
HETATM   16  C20 UNL     1      -1.406  -0.945   2.254  1.00  0.00     0.028 C 
HETATM   17  C21 UNL     1      -2.694  -4.338   1.130  1.00  0.00     0.026 C 
ENDROOT
BRANCH   7  18
HETATM   18  O1  UNL     1       0.044   0.739   0.119  1.00  0.00    -0.334 OA
BRANCH  18  19
HETATM   19  C9  UNL     1      -0.957   1.730   0.199  1.00  0.00     0.270 C 
HETATM   20  O2  UNL     1      -1.250   2.242  -1.083  1.00  0.00    -0.326 OA
HETATM   21  C10 UNL     1      -0.335   3.141  -1.646  1.00  0.00     0.184 C 
HETATM   22  C11 UNL     1       0.033   4.272  -0.698  1.00  0.00     0.215 C 
HETATM   23  C12 UNL     1       0.452   3.785   0.674  1.00  0.00     0.220 C 
HETATM   24  O5  UNL     1      -1.085   5.121  -0.542  1.00  0.00    -0.218 OA
HETATM   25  C13 UNL     1      -0.584   2.809   1.197  1.00  0.00     0.241 C 
HETATM   26  O4  UNL     1       1.715   3.169   0.620  1.00  0.00    -0.218 OA
HETATM   27  O3  UNL     1      -1.750   3.531   1.525  1.00  0.00    -0.215 OA
BRANCH  21  28
HETATM   28  C14 UNL     1       0.842   2.432  -2.302  1.00  0.00     0.214 C 
HETATM   29  O6  UNL     1       1.513   3.319  -3.175  1.00  0.00    -0.218 OA
ENDBRANCH  21  28
ENDBRANCH  18  19
ENDBRANCH   7  18
TORSDOF 3
