REMARK  8 active torsions:
REMARK  status: ('A' for Active; 'I' for Inactive)
REMARK    1  A    between atoms: C3_3  and  C7_8 
REMARK    2  A    between atoms: C9_10  and  O6_26 
REMARK    3  A    between atoms: C10_11  and  C15_19 
REMARK    4  A    between atoms: C12_13  and  O2_14 
REMARK    5  A    between atoms: O2_14  and  C13_15 
REMARK    6  A    between atoms: O6_26  and  C21_27 
REMARK    7  A    between atoms: C21_27  and  C22_28 
REMARK    8  A    between atoms: C22_28  and  C23_29 
ROOT
HETATM    1  C7  UNL     1      -0.348   1.796  -0.470  1.00  0.00     0.052 A 
HETATM    2  C8  UNL     1      -1.052   0.650  -0.327  1.00  0.00     0.156 A 
HETATM    3  C9  UNL     1      -0.448  -0.525  -0.039  1.00  0.00     0.130 A 
HETATM    4  C10 UNL     1       0.901  -0.567   0.054  1.00  0.00     0.052 A 
HETATM    5  C11 UNL     1       1.607   0.577  -0.067  1.00  0.00     0.156 A 
HETATM    6  C12 UNL     1       0.998   1.751  -0.338  1.00  0.00     0.130 A 
HETATM    7  O4  UNL     1       2.973   0.569  -0.050  1.00  0.00    -0.188 OA
HETATM    8  O9  UNL     1      -2.418   0.656  -0.351  1.00  0.00    -0.188 OA
ENDROOT
BRANCH   1   9
HETATM    9  C3  UNL     1      -0.999   2.960  -0.729  1.00  0.00     0.004 A 
HETATM   10  C2  UNL     1      -0.645   4.133  -0.164  1.00  0.00     0.002 A 
HETATM   11  C1  UNL     1      -1.284   5.284  -0.427  1.00  0.00     0.027 A 
HETATM   12  C6  UNL     1      -2.320   5.330  -1.278  1.00  0.00     0.131 A 
HETATM   13  C5  UNL     1      -2.691   4.171  -1.842  1.00  0.00     0.027 A 
HETATM   14  O1  UNL     1      -2.962   6.499  -1.544  1.00  0.00    -0.190 OA
HETATM   15  C4  UNL     1      -2.051   3.023  -1.572  1.00  0.00     0.002 A 
ENDBRANCH   1   9
BRANCH   6  16
HETATM   16  O2  UNL     1       1.813   2.842  -0.539  1.00  0.00    -0.274 OA
BRANCH  16  17
HETATM   17  C13 UNL     1       1.928   3.249  -1.834  1.00  0.00     0.277 C 
HETATM   18  C14 UNL     1       2.331   4.707  -1.912  1.00  0.00     0.107 C 
HETATM   19  O3  UNL     1       1.775   2.516  -2.785  1.00  0.00    -0.264 OA
ENDBRANCH  16  17
ENDBRANCH   6  16
BRANCH   3  20
HETATM   20  O6  UNL     1      -1.225  -1.644   0.190  1.00  0.00    -0.274 OA
BRANCH  20  21
HETATM   21  C21 UNL     1      -1.989  -1.621   1.320  1.00  0.00     0.279 C 
HETATM   22  O8  UNL     1      -2.075  -0.660   2.051  1.00  0.00    -0.264 OA
BRANCH  21  23
HETATM   23  C22 UNL     1      -2.788  -2.900   1.503  1.00  0.00     0.129 C 
BRANCH  23  24
HETATM   24  C23 UNL     1      -1.968  -4.184   1.614  1.00  0.00     0.162 C 
HETATM   25  C24 UNL     1      -0.869  -4.118   2.670  1.00  0.00     0.036 C 
HETATM   26  O7  UNL     1      -1.385  -4.466   0.366  1.00  0.00    -0.223 OA
ENDBRANCH  23  24
ENDBRANCH  21  23
ENDBRANCH  20  21
ENDBRANCH   3  20
BRANCH   4  27
HETATM   27  C15 UNL     1       1.544  -1.740   0.269  1.00  0.00     0.004 A 
HETATM   28  C16 UNL     1       2.588  -1.865   1.113  1.00  0.00     0.002 A 
HETATM   29  C17 UNL     1       3.182  -3.049   1.334  1.00  0.00     0.027 A 
HETATM   30  C18 UNL     1       2.778  -4.167   0.712  1.00  0.00     0.131 A 
HETATM   31  C19 UNL     1       1.768  -4.045  -0.163  1.00  0.00     0.027 A 
HETATM   32  O5  UNL     1       3.370  -5.370   0.939  1.00  0.00    -0.190 OA
HETATM   33  C20 UNL     1       1.179  -2.861  -0.383  1.00  0.00     0.002 A 
ENDBRANCH   4  27
TORSDOF 8
