REMARK  7 active torsions:
REMARK  status: ('A' for Active; 'I' for Inactive)
REMARK    1  A    between atoms: C1_1  and  O2_11 
REMARK    2  A    between atoms: C4_4  and  C7_7 
REMARK    3  A    between atoms: C7_7  and  C8_8 
REMARK    4  A    between atoms: C8_8  and  C9_9 
REMARK    5  A    between atoms: O2_11  and  C10_12 
REMARK    6  A    between atoms: C10_12  and  C11_13 
REMARK    7  A    between atoms: C12_14  and  C13_15 
ROOT
HETATM    1  C1  UNL     1       1.147  -0.373   0.065  1.00  0.00     0.094 A 
HETATM    2  C2  UNL     1       1.631  -1.587   0.392  1.00  0.00     0.024 A 
HETATM    3  C3  UNL     1       0.836  -2.626   0.682  1.00  0.00    -0.002 A 
HETATM    4  C4  UNL     1      -0.502  -2.507   0.661  1.00  0.00    -0.022 A 
HETATM    5  C5  UNL     1      -1.001  -1.302   0.337  1.00  0.00    -0.002 A 
HETATM    6  C6  UNL     1      -0.196  -0.265   0.048  1.00  0.00     0.024 A 
ENDROOT
BRANCH   1   7
HETATM    7  O2  UNL     1       2.042   0.630  -0.217  1.00  0.00    -0.326 OA
BRANCH   7   8
HETATM    8  C10 UNL     1       1.564   1.915  -0.563  1.00  0.00     0.174 C 
BRANCH   8   9
HETATM    9  C11 UNL     1       2.728   2.836  -0.840  1.00  0.00     0.000 C 
HETATM   10  C12 UNL     1       2.693   4.156  -1.099  1.00  0.00    -0.013 C 
HETATM   11  C14 UNL     1       3.979   4.920  -1.335  1.00  0.00     0.029 C 
BRANCH  10  12
HETATM   12  C13 UNL     1       1.458   5.024  -1.180  1.00  0.00     0.204 C 
HETATM   13  O3  UNL     1       0.223   4.332  -1.086  1.00  0.00    -0.216 OA
ENDBRANCH  10  12
ENDBRANCH   8   9
ENDBRANCH   7   8
ENDBRANCH   1   7
BRANCH   4  14
HETATM   14  C7  UNL     1      -1.349  -3.719   0.998  1.00  0.00     0.029 C 
BRANCH  14  15
HETATM   15  C8  UNL     1      -2.877  -3.560   0.944  1.00  0.00     0.040 C 
BRANCH  15  16
HETATM   16  C9  UNL     1      -3.579  -4.870   1.297  1.00  0.00     0.183 C 
HETATM   17  O1  UNL     1      -4.980  -4.692   1.240  1.00  0.00    -0.221 OA
ENDBRANCH  15  16
ENDBRANCH  14  15
ENDBRANCH   4  14
TORSDOF 7
