REMARK  9 active torsions:
REMARK  status: ('A' for Active; 'I' for Inactive)
REMARK    1  A    between atoms: C2_2  and  O8_44 
REMARK    2  A    between atoms: C16_16  and  C19_19 
REMARK    3  A    between atoms: C19_19  and  O2_21 
REMARK    4  A    between atoms: O2_21  and  C20_22 
REMARK    5  A    between atoms: C21_24  and  C25_31 
REMARK    6  A    between atoms: O8_44  and  C37_45 
REMARK    7  A    between atoms: C41_50  and  O10_51 
REMARK    8  A    between atoms: O10_51  and  C42_52 
REMARK    9  A    between atoms: C43_54  and  C47_61 
ROOT
HETATM    1  C1  UNL     1      -0.903  -0.561  -3.820  1.00  0.00     0.030 C 
HETATM    2  C2  UNL     1      -1.354  -1.074  -2.055  1.00  0.00     0.118 C 
HETATM    3  C3  UNL     1      -3.184  -0.714  -1.448  1.00  0.00     0.025 C 
HETATM    4  C4  UNL     1      -4.068  -0.000  -2.686  1.00  0.00     0.002 C 
HETATM    5  C5  UNL     1      -3.380   1.090  -3.667  1.00  0.00     0.001 C 
HETATM    6  C6  UNL     1      -2.226   0.364  -4.720  1.00  0.00     0.003 C 
HETATM    7  C7  UNL     1      -2.300   1.932  -2.994  1.00  0.00     0.005 C 
HETATM    8  C8  UNL     1      -1.735   0.595  -2.423  1.00  0.00     0.004 C 
HETATM    9  C9  UNL     1      -2.643  -0.950  -3.277  1.00  0.00     0.000 C 
HETATM   10  C10 UNL     1      -4.189  -1.122  -3.637  1.00  0.00     0.000 C 
HETATM   11  C11 UNL     1       0.128   1.347  -2.351  1.00  0.00     0.015 C 
HETATM   12  C12 UNL     1       0.194   2.973  -2.206  1.00  0.00    -0.049 C 
HETATM   13  C13 UNL     1      -0.913   3.758  -2.208  1.00  0.00    -0.035 C 
HETATM   14  C14 UNL     1      -2.361   3.306  -2.346  1.00  0.00     0.025 C 
HETATM   15  C15 UNL     1       1.571   3.716  -1.855  1.00  0.00     0.027 C 
HETATM   16  C16 UNL     1       2.868   2.843  -1.692  1.00  0.00     0.082 C 
HETATM   17  C17 UNL     1       2.702   1.988  -3.007  1.00  0.00     0.010 C 
HETATM   18  C18 UNL     1       1.268   1.443  -3.451  1.00  0.00     0.004 C 
HETATM   19  C26 UNL     1       4.240   3.581  -1.843  1.00  0.00     0.010 C 
HETATM   20  C27 UNL     1       4.098   5.077  -1.610  1.00  0.00     0.001 C 
HETATM   21  C28 UNL     1       3.211   5.645  -2.717  1.00  0.00     0.000 C 
HETATM   22  C29 UNL     1       1.847   4.908  -2.842  1.00  0.00     0.004 C 
HETATM   23  C30 UNL     1       0.846   6.076  -2.943  1.00  0.00     0.000 C 
HETATM   24  C31 UNL     1       3.909   5.797  -4.092  1.00  0.00     0.000 C 
HETATM   25  C32 UNL     1       1.112   0.737  -1.290  1.00  0.00     0.004 C 
HETATM   26  C33 UNL     1      -1.698   0.624  -0.687  1.00  0.00     0.000 C 
HETATM   27  C34 UNL     1      -4.533   2.040  -4.107  1.00  0.00     0.000 C 
HETATM   28  C35 UNL     1      -4.048   0.474  -0.557  1.00  0.00     0.002 C 
HETATM   29  C36 UNL     1      -3.855  -1.837  -0.564  1.00  0.00     0.002 C 
ENDROOT
BRANCH   2  30
HETATM   30  O8  UNL     1      -0.672  -2.288  -1.680  1.00  0.00    -0.332 OA
BRANCH  30  31
HETATM   31  C37 UNL     1      -0.153  -2.301  -0.335  1.00  0.00     0.267 C 
HETATM   32  O9  UNL     1       1.260  -2.363  -0.224  1.00  0.00    -0.326 OA
HETATM   33  C38 UNL     1       1.800  -3.419  -0.968  1.00  0.00     0.181 C 
HETATM   34  C39 UNL     1       1.119  -4.757  -0.701  1.00  0.00     0.214 C 
HETATM   35  C40 UNL     1      -0.393  -4.681  -0.490  1.00  0.00     0.217 C 
HETATM   36  O17 UNL     1       1.418  -5.600  -1.796  1.00  0.00    -0.218 OA
HETATM   37  C41 UNL     1      -0.842  -3.458   0.301  1.00  0.00     0.207 C 
HETATM   38  O16 UNL     1      -0.985  -4.663  -1.774  1.00  0.00    -0.218 OA
BRANCH  37  39
HETATM   39  O10 UNL     1      -0.801  -3.686   1.679  1.00  0.00    -0.324 OA
BRANCH  39  40
HETATM   40  C42 UNL     1      -0.885  -2.600   2.590  1.00  0.00     0.270 C 
HETATM   41  O11 UNL     1       0.408  -2.210   3.044  1.00  0.00    -0.326 OA
HETATM   42  C43 UNL     1       1.150  -3.227   3.672  1.00  0.00     0.184 C 
HETATM   43  C44 UNL     1       0.359  -3.870   4.810  1.00  0.00     0.215 C 
HETATM   44  C45 UNL     1      -1.097  -4.186   4.496  1.00  0.00     0.220 C 
HETATM   45  O14 UNL     1       0.991  -5.043   5.264  1.00  0.00    -0.218 OA
HETATM   46  C46 UNL     1      -1.731  -3.014   3.776  1.00  0.00     0.241 C 
HETATM   47  O13 UNL     1      -1.214  -5.330   3.682  1.00  0.00    -0.218 OA
HETATM   48  O12 UNL     1      -1.898  -1.962   4.705  1.00  0.00    -0.215 OA
BRANCH  42  49
HETATM   49  C47 UNL     1       1.708  -4.187   2.632  1.00  0.00     0.214 C 
HETATM   50  O15 UNL     1       3.100  -4.395   2.700  1.00  0.00    -0.218 OA
ENDBRANCH  42  49
ENDBRANCH  39  40
ENDBRANCH  37  39
ENDBRANCH  30  31
ENDBRANCH   2  30
BRANCH  16  51
HETATM   51  C19 UNL     1       3.180   2.140  -0.260  1.00  0.00     0.273 C 
HETATM   52  O1  UNL     1       3.810   1.115  -0.219  1.00  0.00    -0.264 OA
BRANCH  51  53
HETATM   53  O2  UNL     1       2.544   2.655   0.901  1.00  0.00    -0.273 OA
BRANCH  53  54
HETATM   54  C20 UNL     1       2.291   1.763   2.021  1.00  0.00     0.276 C 
HETATM   55  O3  UNL     1       1.132   0.974   1.755  1.00  0.00    -0.326 OA
HETATM   56  C21 UNL     1      -0.090   1.693   1.958  1.00  0.00     0.184 C 
HETATM   57  C22 UNL     1      -0.403   2.175   3.344  1.00  0.00     0.215 C 
HETATM   58  C23 UNL     1       0.769   3.044   3.755  1.00  0.00     0.220 C 
HETATM   59  O6  UNL     1      -0.716   1.061   4.158  1.00  0.00    -0.218 OA
HETATM   60  C24 UNL     1       2.075   2.332   3.445  1.00  0.00     0.241 C 
HETATM   61  O5  UNL     1       0.779   4.312   3.132  1.00  0.00    -0.218 OA
HETATM   62  O4  UNL     1       2.043   1.290   4.419  1.00  0.00    -0.215 OA
BRANCH  56  63
HETATM   63  C25 UNL     1      -0.247   3.029   1.191  1.00  0.00     0.214 C 
HETATM   64  O7  UNL     1      -0.633   2.665  -0.054  1.00  0.00    -0.218 OA
ENDBRANCH  56  63
ENDBRANCH  53  54
ENDBRANCH  51  53
ENDBRANCH  16  51
TORSDOF 9
