REMARK  7 active torsions:
REMARK  status: ('A' for Active; 'I' for Inactive)
REMARK    1  A    between atoms: C3_3  and  C19_19 
REMARK    2  A    between atoms: C19_19  and  O1_20 
REMARK    3  A    between atoms: O1_20  and  C20_21 
REMARK    4  A    between atoms: C21_23  and  C25_30 
REMARK    5  A    between atoms: C25_30  and  O6_31 
REMARK    6  A    between atoms: O6_31  and  C26_32 
REMARK    7  A    between atoms: C28_35  and  C30_38 
ROOT
HETATM    1  C19 UNL     1      -0.988  -1.581   2.096  1.00  0.00     0.147 C 
ENDROOT
BRANCH   1   2
HETATM    2  C3  UNL     1      -1.088  -0.032   2.297  1.00  0.00     0.056 C 
HETATM    3  C2  UNL     1      -1.693   0.246   3.694  1.00  0.00     0.154 C 
HETATM    4  C1  UNL     1      -1.636   1.713   4.116  1.00  0.00     0.033 C 
HETATM    5  O11 UNL     1      -1.024  -0.491   4.695  1.00  0.00    -0.223 OA
HETATM    6  C6  UNL     1      -0.211   2.287   4.037  1.00  0.00     0.003 C 
HETATM    7  C5  UNL     1       0.451   2.151   2.637  1.00  0.00     0.000 C 
HETATM    8  C4  UNL     1       0.323   0.643   2.232  1.00  0.00     0.005 C 
HETATM    9  C7  UNL     1       1.981   2.523   2.721  1.00  0.00     0.000 C 
HETATM   10  C18 UNL     1      -0.276   3.149   1.703  1.00  0.00     0.000 C 
HETATM   11  C10 UNL     1       1.095   0.406   0.921  1.00  0.00     0.000 C 
HETATM   12  C9  UNL     1       2.594   0.637   1.113  1.00  0.00     0.000 C 
HETATM   13  C8  UNL     1       2.891   2.079   1.539  1.00  0.00     0.004 C 
HETATM   14  C11 UNL     1       2.807   3.065   0.356  1.00  0.00     0.004 C 
HETATM   15  C16 UNL     1       4.395   2.206   1.911  1.00  0.00     0.022 C 
HETATM   16  C12 UNL     1       3.548   4.284   0.918  1.00  0.00     0.018 C 
HETATM   17  C13 UNL     1       2.683   4.950   1.995  1.00  0.00     0.004 C 
HETATM   18  C15 UNL     1       4.739   3.630   1.565  1.00  0.00    -0.045 C 
HETATM   19  C14 UNL     1       2.321   3.980   3.138  1.00  0.00     0.000 C 
HETATM   20  C17 UNL     1       5.913   4.226   1.807  1.00  0.00    -0.009 C 
HETATM   21  C31 UNL     1      -2.035   0.544   1.217  1.00  0.00     0.005 C 
ENDBRANCH   1   2
BRANCH   1  22
HETATM   22  O1  UNL     1      -2.084  -2.091   1.371  1.00  0.00    -0.329 OA
BRANCH  22  23
HETATM   23  C20 UNL     1      -1.996  -3.461   1.053  1.00  0.00     0.270 C 
HETATM   24  O2  UNL     1      -1.085  -3.644  -0.010  1.00  0.00    -0.326 OA
HETATM   25  C21 UNL     1      -1.503  -3.254  -1.293  1.00  0.00     0.180 C 
HETATM   26  C22 UNL     1      -2.877  -3.795  -1.662  1.00  0.00     0.215 C 
HETATM   27  C23 UNL     1      -3.920  -3.586  -0.581  1.00  0.00     0.220 C 
HETATM   28  O5  UNL     1      -2.774  -5.181  -1.912  1.00  0.00    -0.218 OA
HETATM   29  C24 UNL     1      -3.362  -4.043   0.753  1.00  0.00     0.241 C 
HETATM   30  O4  UNL     1      -4.299  -2.233  -0.511  1.00  0.00    -0.218 OA
HETATM   31  O3  UNL     1      -3.253  -5.449   0.732  1.00  0.00    -0.215 OA
BRANCH  25  32
HETATM   32  C25 UNL     1      -1.316  -1.761  -1.565  1.00  0.00     0.177 C 
BRANCH  32  33
HETATM   33  O6  UNL     1      -1.146  -1.563  -2.949  1.00  0.00    -0.326 OA
BRANCH  33  34
HETATM   34  C26 UNL     1      -0.846  -0.225  -3.300  1.00  0.00     0.270 C 
HETATM   35  O7  UNL     1      -1.109  -0.183  -4.692  1.00  0.00    -0.326 OA
HETATM   36  C27 UNL     1       0.124  -0.345  -5.352  1.00  0.00     0.181 C 
HETATM   37  C28 UNL     1       1.109   0.442  -4.516  1.00  0.00     0.217 C 
HETATM   38  C29 UNL     1       0.621   0.103  -3.123  1.00  0.00     0.241 C 
HETATM   39  O10 UNL     1       0.910   1.811  -4.763  1.00  0.00    -0.218 OA
HETATM   40  O8  UNL     1       0.852   1.210  -2.292  1.00  0.00    -0.215 OA
BRANCH  37  41
HETATM   41  C30 UNL     1       2.581   0.137  -4.695  1.00  0.00     0.218 C 
HETATM   42  O9  UNL     1       3.279   0.795  -3.655  1.00  0.00    -0.218 OA
ENDBRANCH  37  41
ENDBRANCH  33  34
ENDBRANCH  32  33
ENDBRANCH  25  32
ENDBRANCH  22  23
ENDBRANCH   1  22
TORSDOF 7
