REMARK  3 active torsions:
REMARK  status: ('A' for Active; 'I' for Inactive)
REMARK    1  A    between atoms: C9_10  and  C12_14 
REMARK    2  A    between atoms: C12_14  and  C13_15 
REMARK    3  A    between atoms: C16_18  and  C17_20 
ROOT
HETATM    1  C1  UNL     1       1.833   4.650  -4.731  1.00  0.00     0.000 A 
HETATM    2  C2  UNL     1       0.666   4.233  -5.254  1.00  0.00     0.002 A 
HETATM    3  C3  UNL     1      -0.015   3.212  -4.704  1.00  0.00     0.019 A 
HETATM    4  C4  UNL     1       0.510   2.627  -3.622  1.00  0.00     0.081 A 
HETATM    5  C5  UNL     1       1.673   3.042  -3.100  1.00  0.00     0.019 A 
HETATM    6  C6  UNL     1       2.355   4.059  -3.641  1.00  0.00     0.002 A 
HETATM    7  C7  UNL     1       1.904   2.250  -2.047  1.00  0.00     0.022 A 
HETATM    8  C8  UNL     1       0.877   1.390  -1.976  1.00  0.00     0.095 A 
HETATM    9  N1  UNL     1       0.079   1.655  -2.927  1.00  0.00    -0.244 NA
HETATM   10  C9  UNL     1       0.838   0.457  -1.014  1.00  0.00     0.079 A 
HETATM   11  N2  UNL     1       1.780   0.385  -0.167  1.00  0.00    -0.247 NA
HETATM   12  C10 UNL     1       2.750   1.201  -0.225  1.00  0.00     0.099 A 
HETATM   13  C11 UNL     1       2.886   2.173  -1.144  1.00  0.00     0.022 A 
ENDROOT
BRANCH  10  14
HETATM   14  C12 UNL     1      -0.277  -0.555  -0.881  1.00  0.00     0.075 C 
BRANCH  14  15
HETATM   15  C13 UNL     1      -1.157  -0.403   0.374  1.00  0.00     0.099 C 
HETATM   16  C14 UNL     1      -2.351  -1.358   0.332  1.00  0.00     0.030 C 
HETATM   17  C15 UNL     1      -1.720  -2.667   0.809  1.00  0.00     0.035 C 
HETATM   18  C16 UNL     1      -0.523  -2.192   1.638  1.00  0.00     0.143 C 
HETATM   19  O1  UNL     1      -0.470  -0.792   1.524  1.00  0.00    -0.359 OA
HETATM   20  C20 UNL     1      -1.617   1.047   0.541  1.00  0.00     0.030 C 
BRANCH  18  21
HETATM   21  C17 UNL     1      -0.533  -2.606   3.113  1.00  0.00     0.152 C 
HETATM   22  C18 UNL     1      -0.471  -4.130   3.265  1.00  0.00     0.035 C 
HETATM   23  C19 UNL     1      -1.727  -2.043   3.889  1.00  0.00     0.035 C 
HETATM   24  O2  UNL     1       0.634  -2.096   3.708  1.00  0.00    -0.224 OA
ENDBRANCH  18  21
ENDBRANCH  14  15
ENDBRANCH  10  14
TORSDOF 3
