REMARK  13 active torsions:
REMARK  status: ('A' for Active; 'I' for Inactive)
REMARK    1  A    between atoms: C3_3  and  C36_44 
REMARK    2  A    between atoms: C15_16  and  C18_19 
REMARK    3  A    between atoms: C18_19  and  C20_21 
REMARK    4  A    between atoms: C20_21  and  C21_22 
REMARK    5  A    between atoms: C21_22  and  C22_23 
REMARK    6  A    between atoms: C22_23  and  C23_24 
REMARK    7  A    between atoms: C22_23  and  C30_37 
REMARK    8  A    between atoms: C23_24  and  O2_25 
REMARK    9  A    between atoms: O2_25  and  C24_26 
REMARK   10  A    between atoms: C25_28  and  C29_35 
REMARK   11  A    between atoms: C36_44  and  O10_46 
REMARK   12  A    between atoms: O10_46  and  C37_47 
REMARK   13  A    between atoms: C38_49  and  C42_56 
ROOT
HETATM    1  C1  UNL     1      -6.463  -0.378   1.765  1.00  0.00     0.066 C 
HETATM    2  C2  UNL     1      -6.244  -1.857   2.085  1.00  0.00     0.164 C 
HETATM    3  C3  UNL     1      -5.348  -2.534   1.031  1.00  0.00     0.106 C 
HETATM    4  C4  UNL     1      -3.938  -1.889   1.120  1.00  0.00     0.014 C 
HETATM    5  C5  UNL     1      -3.879  -0.422   1.558  1.00  0.00     0.029 A 
HETATM    6  C6  UNL     1      -5.177   0.371   1.401  1.00  0.00     0.155 C 
HETATM    7  O1  UNL     1      -5.291   0.871   0.081  1.00  0.00    -0.223 OA
HETATM    8  C7  UNL     1      -2.511   0.260   1.446  1.00  0.00     0.002 A 
HETATM    9  C8  UNL     1      -1.285  -0.579   1.035  1.00  0.00     0.000 C 
HETATM   10  C9  UNL     1      -1.542  -1.978   0.432  1.00  0.00     0.000 C 
HETATM   11  C10 UNL     1      -2.984  -2.142  -0.055  1.00  0.00     0.001 C 
HETATM   12  C11 UNL     1      -0.229   0.246   0.261  1.00  0.00     0.000 C 
HETATM   13  C12 UNL     1       0.098   1.563   1.041  1.00  0.00     0.000 C 
HETATM   14  C13 UNL     1      -1.133   2.482   0.937  1.00  0.00     0.000 C 
HETATM   15  C14 UNL     1      -2.487   1.745   1.056  1.00  0.00     0.000 C 
HETATM   16  C15 UNL     1       1.411   2.047   0.351  1.00  0.00     0.000 C 
HETATM   17  C16 UNL     1       2.153   0.712   0.133  1.00  0.00     0.000 C 
HETATM   18  C17 UNL     1       1.146  -0.444   0.188  1.00  0.00     0.000 C 
HETATM   19  C33 UNL     1       0.378   1.358   2.553  1.00  0.00     0.000 C 
HETATM   20  C34 UNL     1      -0.680   0.468  -1.207  1.00  0.00     0.000 C 
HETATM   21  C35 UNL     1      -3.085  -0.091   2.804  1.00  0.00     0.003 A 
HETATM   22  C43 UNL     1      -5.231  -4.045   1.375  1.00  0.00     0.013 C 
HETATM   23  O16 UNL     1      -5.678  -1.971   3.371  1.00  0.00    -0.223 OA
ENDROOT
BRANCH  16  24
HETATM   24  C18 UNL     1       2.308   3.146   0.986  1.00  0.00     0.000 C 
HETATM   25  C19 UNL     1       1.555   4.486   1.101  1.00  0.00     0.000 C 
BRANCH  24  26
HETATM   26  C20 UNL     1       3.641   3.404   0.222  1.00  0.00     0.003 C 
BRANCH  26  27
HETATM   27  C21 UNL     1       4.778   2.424   0.575  1.00  0.00     0.033 C 
BRANCH  27  28
HETATM   28  C22 UNL     1       6.244   2.760   0.234  1.00  0.00     0.154 C 
HETATM   29  O8  UNL     1       6.246   3.461  -0.982  1.00  0.00    -0.223 OA
BRANCH  28  30
HETATM   30  C23 UNL     1       6.995   1.428   0.009  1.00  0.00     0.175 C 
BRANCH  30  31
HETATM   31  O2  UNL     1       6.629   0.508   1.011  1.00  0.00    -0.326 OA
BRANCH  31  32
HETATM   32  C24 UNL     1       7.443  -0.633   1.132  1.00  0.00     0.270 C 
HETATM   33  O3  UNL     1       7.305  -1.460  -0.002  1.00  0.00    -0.326 OA
HETATM   34  C25 UNL     1       6.106  -2.178  -0.147  1.00  0.00     0.184 C 
HETATM   35  C26 UNL     1       5.636  -2.864   1.130  1.00  0.00     0.215 C 
HETATM   36  C27 UNL     1       5.724  -1.979   2.359  1.00  0.00     0.220 C 
HETATM   37  O6  UNL     1       6.443  -4.000   1.343  1.00  0.00    -0.218 OA
HETATM   38  C28 UNL     1       7.097  -1.346   2.422  1.00  0.00     0.241 C 
HETATM   39  O5  UNL     1       4.730  -0.978   2.319  1.00  0.00    -0.218 OA
HETATM   40  O4  UNL     1       8.068  -2.333   2.695  1.00  0.00    -0.215 OA
BRANCH  34  41
HETATM   41  C29 UNL     1       5.031  -1.369  -0.857  1.00  0.00     0.214 C 
HETATM   42  O7  UNL     1       4.001  -2.224  -1.314  1.00  0.00    -0.218 OA
ENDBRANCH  34  41
ENDBRANCH  31  32
ENDBRANCH  30  31
ENDBRANCH  28  30
BRANCH  28  43
HETATM   43  C30 UNL     1       6.971   3.607   1.306  1.00  0.00     0.031 C 
HETATM   44  C31 UNL     1       8.313   4.196   0.817  1.00  0.00     0.003 C 
HETATM   45  C32 UNL     1       6.148   4.770   1.890  1.00  0.00     0.003 C 
ENDBRANCH  28  43
ENDBRANCH  27  28
ENDBRANCH  26  27
ENDBRANCH  24  26
ENDBRANCH  16  24
BRANCH   3  46
HETATM   46  C36 UNL     1      -6.129  -2.511  -0.293  1.00  0.00     0.275 C 
HETATM   47  O9  UNL     1      -7.188  -3.091  -0.403  1.00  0.00    -0.264 OA
BRANCH  46  48
HETATM   48  O10 UNL     1      -5.533  -1.868  -1.335  1.00  0.00    -0.273 OA
BRANCH  48  49
HETATM   49  C37 UNL     1      -6.117  -2.084  -2.607  1.00  0.00     0.276 C 
HETATM   50  O11 UNL     1      -5.147  -1.849  -3.611  1.00  0.00    -0.326 OA
HETATM   51  C38 UNL     1      -4.929  -0.517  -3.993  1.00  0.00     0.184 C 
HETATM   52  C39 UNL     1      -6.224   0.228  -4.288  1.00  0.00     0.215 C 
HETATM   53  C40 UNL     1      -7.249   0.097  -3.183  1.00  0.00     0.220 C 
HETATM   54  O14 UNL     1      -6.787  -0.271  -5.483  1.00  0.00    -0.218 OA
HETATM   55  C41 UNL     1      -7.432  -1.366  -2.837  1.00  0.00     0.241 C 
HETATM   56  O13 UNL     1      -6.805   0.774  -2.040  1.00  0.00    -0.218 OA
HETATM   57  O12 UNL     1      -8.100  -2.002  -3.902  1.00  0.00    -0.215 OA
BRANCH  51  58
HETATM   58  C42 UNL     1      -3.947   0.167  -3.053  1.00  0.00     0.214 C 
HETATM   59  O15 UNL     1      -3.763   1.522  -3.406  1.00  0.00    -0.218 OA
ENDBRANCH  51  58
ENDBRANCH  48  49
ENDBRANCH  46  48
ENDBRANCH   3  46
TORSDOF 13
