REMARK  2 active torsions:
REMARK  status: ('A' for Active; 'I' for Inactive)
REMARK    1  A    between atoms: C1_1  and  C14_15 
REMARK    2  A    between atoms: C3_3  and  C11_12 
ROOT
HETATM    1  C1  UNL     1      -1.739   0.511   0.537  1.00  0.00     0.034 A 
HETATM    2  C2  UNL     1      -1.269   1.056  -0.605  1.00  0.00    -0.002 A 
HETATM    3  C3  UNL     1      -0.047   0.782  -1.103  1.00  0.00    -0.027 A 
HETATM    4  C4  UNL     1       0.719  -0.072  -0.404  1.00  0.00    -0.028 A 
HETATM    5  C5  UNL     1       0.269  -0.626   0.728  1.00  0.00     0.001 A 
HETATM    6  C6  UNL     1      -0.948  -0.346   1.208  1.00  0.00     0.001 A 
HETATM    7  C7  UNL     1       1.270  -1.562   1.353  1.00  0.00     0.145 C 
HETATM    8  C8  UNL     1       2.561  -1.148   0.632  1.00  0.00     0.039 C 
HETATM    9  C9  UNL     1       2.116  -0.545  -0.716  1.00  0.00     0.029 C 
HETATM   10  O1  UNL     1       1.375  -1.301   2.733  1.00  0.00    -0.222 OA
HETATM   11  C10 UNL     1       0.902  -3.023   1.129  1.00  0.00     0.038 C 
ENDROOT
BRANCH   1  12
HETATM   12  C14 UNL     1      -2.988   0.833   0.981  1.00  0.00     0.173 C 
HETATM   13  C15 UNL     1      -3.542   0.229   2.264  1.00  0.00     0.077 C 
HETATM   14  O2  UNL     1      -3.705   1.607   0.384  1.00  0.00    -0.291 OA
ENDBRANCH   1  12
BRANCH   3  15
HETATM   15  C11 UNL     1       0.427   1.420  -2.400  1.00  0.00     0.022 C 
HETATM   16  C12 UNL     1      -0.497   1.065  -3.577  1.00  0.00     0.005 C 
HETATM   17  C13 UNL     1       0.577   2.942  -2.243  1.00  0.00     0.005 C 
ENDBRANCH   3  15
TORSDOF 2
