REMARK  8 active torsions:
REMARK  status: ('A' for Active; 'I' for Inactive)
REMARK    1  A    between atoms: C5_5  and  C7_7 
REMARK    2  A    between atoms: C8_8  and  C9_9 
REMARK    3  A    between atoms: C9_9  and  O1_10 
REMARK    4  A    between atoms: O1_10  and  C10_11 
REMARK    5  A    between atoms: C10_11  and  C11_12 
REMARK    6  A    between atoms: C10_11  and  C23_27 
REMARK    7  A    between atoms: C11_12  and  C12_13 
REMARK    8  A    between atoms: C27_31  and  C28_32 
ROOT
HETATM    1  C10 UNL     1       0.816  -0.409  -0.295  1.00  0.00     0.132 C 
ENDROOT
BRANCH   1   2
HETATM    2  O1  UNL     1       0.808   0.977  -0.090  1.00  0.00    -0.300 OA
BRANCH   2   3
HETATM    3  C9  UNL     1       0.543   1.536   1.133  1.00  0.00     0.296 C 
HETATM    4  O7  UNL     1       0.323   0.810   2.072  1.00  0.00    -0.259 OA
BRANCH   3   5
HETATM    5  C8  UNL     1       0.468   2.891   1.234  1.00  0.00     0.068 C 
HETATM    6  C7  UNL     1       0.270   3.733   2.267  1.00  0.00     0.005 C 
BRANCH   6   7
HETATM    7  C5  UNL     1       0.171   3.636   3.612  1.00  0.00     0.000 A 
HETATM    8  C4  UNL     1      -0.193   4.747   4.293  1.00  0.00     0.000 A 
HETATM    9  C3  UNL     1      -0.315   4.770   5.630  1.00  0.00     0.000 A 
HETATM   10  C2  UNL     1      -0.059   3.668   6.346  1.00  0.00     0.000 A 
HETATM   11  C1  UNL     1       0.336   2.560   5.704  1.00  0.00     0.000 A 
HETATM   12  C6  UNL     1       0.453   2.557   4.366  1.00  0.00     0.000 A 
ENDBRANCH   6   7
ENDBRANCH   3   5
ENDBRANCH   2   3
ENDBRANCH   1   2
BRANCH   1  13
HETATM   13  C11 UNL     1      -0.535  -1.056   0.091  1.00  0.00     0.038 C 
BRANCH  13  14
HETATM   14  C12 UNL     1      -1.317  -1.785  -1.036  1.00  0.00     0.067 C 
HETATM   15  C13 UNL     1      -1.676  -3.236  -0.718  1.00  0.00     0.173 C 
HETATM   16  C14 UNL     1      -2.477  -3.882  -1.600  1.00  0.00     0.035 C 
HETATM   17  O4  UNL     1      -1.214  -3.833   0.229  1.00  0.00    -0.291 OA
HETATM   18  C15 UNL     1      -3.079  -3.265  -2.626  1.00  0.00     0.006 C 
HETATM   19  C16 UNL     1      -3.079  -1.773  -2.861  1.00  0.00     0.148 C 
HETATM   20  C17 UNL     1      -2.521  -0.998  -1.637  1.00  0.00     0.037 C 
HETATM   21  C21 UNL     1      -2.321  -1.399  -4.135  1.00  0.00     0.068 C 
HETATM   22  O3  UNL     1      -4.432  -1.413  -3.084  1.00  0.00    -0.221 OA
HETATM   23  C18 UNL     1      -2.038   0.410  -2.079  1.00  0.00     0.006 C 
HETATM   24  C22 UNL     1      -3.635  -0.862  -0.568  1.00  0.00     0.003 C 
HETATM   25  C19 UNL     1      -2.782   0.970  -3.298  1.00  0.00     0.033 C 
HETATM   26  C20 UNL     1      -2.604   0.058  -4.516  1.00  0.00     0.155 C 
HETATM   27  O2  UNL     1      -3.782   0.099  -5.290  1.00  0.00    -0.223 OA
ENDBRANCH  13  14
ENDBRANCH   1  13
BRANCH   1  28
HETATM   28  C23 UNL     1       2.139  -1.077   0.181  1.00  0.00     0.084 C 
HETATM   29  C24 UNL     1       2.370  -2.345  -0.656  1.00  0.00     0.152 C 
HETATM   30  C25 UNL     1       3.779  -2.419  -1.210  1.00  0.00     0.065 C 
HETATM   31  O6  UNL     1       1.533  -3.183  -0.892  1.00  0.00    -0.296 OA
HETATM   32  C26 UNL     1       4.518  -1.300  -0.472  1.00  0.00     0.016 C 
HETATM   33  C27 UNL     1       3.421  -0.263  -0.174  1.00  0.00     0.067 C 
HETATM   34  C30 UNL     1       2.178  -1.535   1.652  1.00  0.00     0.010 C 
BRANCH  33  35
HETATM   35  C28 UNL     1       3.850   0.839   0.795  1.00  0.00     0.151 C 
HETATM   36  O5  UNL     1       3.374   1.950   0.713  1.00  0.00    -0.296 OA
HETATM   37  C29 UNL     1       4.902   0.570   1.855  1.00  0.00     0.072 C 
ENDBRANCH  33  35
ENDBRANCH   1  28
TORSDOF 8
