REMARK  1 active torsions:
REMARK  status: ('A' for Active; 'I' for Inactive)
REMARK    1  A    between atoms: C12_12  and  C15_15 
ROOT
HETATM    1  C1  UNL     1      -2.844   0.576  -2.578  1.00  0.00     0.183 C 
HETATM    2  C2  UNL     1      -3.457  -0.785  -2.855  1.00  0.00     0.186 C 
HETATM    3  C3  UNL     1      -2.588  -1.932  -2.338  1.00  0.00     0.057 C 
HETATM    4  C4  UNL     1      -1.385  -1.435  -1.565  1.00  0.00    -0.046 C 
HETATM    5  C5  UNL     1      -1.629  -0.377  -0.494  1.00  0.00     0.018 C 
HETATM    6  C6  UNL     1      -2.517   0.749  -1.095  1.00  0.00     0.039 C 
HETATM    7  C7  UNL     1      -0.288   0.241   0.009  1.00  0.00     0.011 C 
HETATM    8  C8  UNL     1       0.831  -0.802   0.177  1.00  0.00     0.063 C 
HETATM    9  C9  UNL     1       1.098  -1.515  -1.154  1.00  0.00     0.033 C 
HETATM   10  C10 UNL     1      -0.169  -1.938  -1.833  1.00  0.00    -0.034 C 
HETATM   11  C11 UNL     1       2.107  -0.175   0.732  1.00  0.00     0.154 C 
HETATM   12  C12 UNL     1       1.960   0.670   1.990  1.00  0.00     0.082 C 
HETATM   13  C13 UNL     1       0.883   1.734   1.729  1.00  0.00     0.012 C 
HETATM   14  C14 UNL     1      -0.435   1.070   1.303  1.00  0.00     0.002 C 
HETATM   15  O2  UNL     1       3.189  -0.363   0.224  1.00  0.00    -0.296 OA
HETATM   16  C20 UNL     1      -2.392  -1.074   0.657  1.00  0.00     0.004 C 
HETATM   17  O3  UNL     1      -4.723  -0.844  -2.239  1.00  0.00    -0.220 OA
HETATM   18  O4  UNL     1      -1.676   0.739  -3.348  1.00  0.00    -0.221 OA
ENDROOT
BRANCH  12  19
HETATM   19  C15 UNL     1       3.270   1.235   2.477  1.00  0.00     0.005 A 
HETATM   20  C16 UNL     1       3.626   2.524   2.579  1.00  0.00     0.025 A 
HETATM   21  C17 UNL     1       4.870   2.486   3.066  1.00  0.00     0.122 A 
HETATM   22  O1  UNL     1       5.250   1.332   3.250  1.00  0.00    -0.310 OA
HETATM   23  C18 UNL     1       4.347   0.561   2.919  1.00  0.00     0.074 A 
HETATM   24  C19 UNL     1       4.497  -0.930   3.029  1.00  0.00     0.058 C 
ENDBRANCH  12  19
TORSDOF 1
