REMARK  8 active torsions:
REMARK  status: ('A' for Active; 'I' for Inactive)
REMARK    1  A    between atoms: C7_8  and  C26_36 
REMARK    2  A    between atoms: C8_9  and  O3_12 
REMARK    3  A    between atoms: O3_12  and  C10_13 
REMARK    4  A    between atoms: C11_15  and  C15_22 
REMARK    5  A    between atoms: C15_22  and  O8_23 
REMARK    6  A    between atoms: O8_23  and  C16_24 
REMARK    7  A    between atoms: C16_24  and  C17_26 
REMARK    8  A    between atoms: C20_29  and  C23_32 
ROOT
HETATM    1  C10 UNL     1       0.280  -2.140  -2.124  1.00  0.00     0.274 C 
HETATM    2  O4  UNL     1      -0.021  -3.433  -1.624  1.00  0.00    -0.326 OA
HETATM    3  C11 UNL     1       0.603  -3.829  -0.442  1.00  0.00     0.181 C 
HETATM    4  C12 UNL     1       2.106  -3.743  -0.633  1.00  0.00     0.215 C 
HETATM    5  C13 UNL     1       2.552  -2.312  -0.831  1.00  0.00     0.220 C 
HETATM    6  C14 UNL     1       1.684  -1.597  -1.858  1.00  0.00     0.241 C 
HETATM    7  O5  UNL     1       2.393  -1.613  -3.084  1.00  0.00    -0.215 OA
HETATM    8  O6  UNL     1       2.526  -1.614   0.395  1.00  0.00    -0.218 OA
HETATM    9  O7  UNL     1       2.461  -4.491  -1.775  1.00  0.00    -0.218 OA
ENDROOT
BRANCH   1  10
HETATM   10  O3  UNL     1      -0.841  -1.328  -1.790  1.00  0.00    -0.298 OA
BRANCH  10  11
HETATM   11  C8  UNL     1      -0.745   0.046  -1.636  1.00  0.00     0.158 C 
HETATM   12  C7  UNL     1      -0.103   0.939  -2.433  1.00  0.00     0.125 C 
HETATM   13  O1  UNL     1       0.197   2.174  -1.926  1.00  0.00    -0.305 OA
HETATM   14  C5  UNL     1      -0.641   2.663  -0.978  1.00  0.00     0.107 A 
HETATM   15  C4  UNL     1      -1.423   1.851  -0.246  1.00  0.00     0.089 A 
HETATM   16  C6  UNL     1      -0.661   3.985  -0.730  1.00  0.00     0.052 A 
HETATM   17  C3  UNL     1      -2.223   2.363   0.717  1.00  0.00     0.138 A 
HETATM   18  C9  UNL     1      -1.389   0.516  -0.519  1.00  0.00     0.224 C 
HETATM   19  C2  UNL     1      -2.211   3.691   0.922  1.00  0.00     0.055 A 
HETATM   20  O13 UNL     1      -3.072   1.611   1.471  1.00  0.00    -0.190 OA
HETATM   21  C1  UNL     1      -1.440   4.529   0.215  1.00  0.00     0.135 A 
HETATM   22  O14 UNL     1      -1.446   5.871   0.438  1.00  0.00    -0.190 OA
HETATM   23  O2  UNL     1      -1.990  -0.272   0.179  1.00  0.00    -0.284 OA
BRANCH  12  24
HETATM   24  C26 UNL     1       0.421   0.633  -3.645  1.00  0.00     0.027 A 
HETATM   25  C27 UNL     1       1.449   1.353  -4.138  1.00  0.00     0.032 A 
HETATM   26  C28 UNL     1       2.071   1.053  -5.291  1.00  0.00     0.156 A 
HETATM   27  C29 UNL     1       1.635   0.018  -6.027  1.00  0.00     0.156 A 
HETATM   28  O12 UNL     1       3.144   1.770  -5.722  1.00  0.00    -0.188 OA
HETATM   29  C30 UNL     1       0.555  -0.654  -5.604  1.00  0.00     0.030 A 
HETATM   30  O11 UNL     1       2.251  -0.300  -7.196  1.00  0.00    -0.188 OA
HETATM   31  C31 UNL     1      -0.046  -0.340  -4.447  1.00  0.00     0.004 A 
ENDBRANCH  12  24
ENDBRANCH  10  11
ENDBRANCH   1  10
BRANCH   3  32
HETATM   32  C15 UNL     1       0.102  -3.095   0.795  1.00  0.00     0.184 C 
BRANCH  32  33
HETATM   33  O8  UNL     1      -1.210  -3.450   1.117  1.00  0.00    -0.296 OA
BRANCH  33  34
HETATM   34  C16 UNL     1      -1.962  -2.780   2.059  1.00  0.00     0.291 C 
HETATM   35  O9  UNL     1      -3.127  -3.129   2.110  1.00  0.00    -0.260 OA
BRANCH  34  36
HETATM   36  C17 UNL     1      -1.630  -1.788   2.948  1.00  0.00     0.037 C 
HETATM   37  C18 UNL     1      -2.763  -1.190   3.772  1.00  0.00     0.032 C 
HETATM   38  C19 UNL     1      -2.328  -0.213   4.876  1.00  0.00     0.008 C 
HETATM   39  C20 UNL     1      -1.233   0.736   4.365  1.00  0.00     0.033 C 
HETATM   40  C21 UNL     1      -0.026  -0.155   4.048  1.00  0.00     0.028 C 
HETATM   41  C22 UNL     1      -0.389  -1.302   3.139  1.00  0.00    -0.025 C 
BRANCH  39  42
HETATM   42  C23 UNL     1      -0.919   1.928   5.290  1.00  0.00     0.127 C 
HETATM   43  C24 UNL     1      -2.096   2.909   5.353  1.00  0.00     0.033 C 
HETATM   44  C25 UNL     1       0.329   2.701   4.846  1.00  0.00     0.033 C 
HETATM   45  O10 UNL     1      -0.682   1.448   6.587  1.00  0.00    -0.226 OA
ENDBRANCH  39  42
ENDBRANCH  34  36
ENDBRANCH  33  34
ENDBRANCH  32  33
ENDBRANCH   3  32
TORSDOF 8
