REMARK  0 active torsions:
REMARK  status: ('A' for Active; 'I' for Inactive)
ROOT
HETATM    1  C1  UNL     1      -0.350   0.554  -0.176  1.00  0.00     0.033 A 
HETATM    2  C2  UNL     1      -0.495  -0.933   0.007  1.00  0.00    -0.045 A 
HETATM    3  C3  UNL     1       0.707  -1.560   0.646  1.00  0.00     0.022 C 
HETATM    4  C4  UNL     1       1.472  -0.267   1.041  1.00  0.00     0.004 C 
HETATM    5  C5  UNL     1       2.492   0.066  -0.067  1.00  0.00     0.000 C 
HETATM    6  C6  UNL     1       1.830   0.177  -1.451  1.00  0.00     0.001 C 
HETATM    7  C7  UNL     1       0.464   0.894  -1.442  1.00  0.00     0.007 C 
HETATM    8  C8  UNL     1      -0.285   0.595  -2.755  1.00  0.00     0.001 C 
HETATM    9  C9  UNL     1       0.386   0.846   1.147  1.00  0.00     0.007 C 
HETATM   10  C10 UNL     1       0.929   2.284   1.259  1.00  0.00     0.001 C 
HETATM   11  C11 UNL     1      -0.503   0.631   2.396  1.00  0.00     0.001 C 
HETATM   12  C12 UNL     1      -1.739  -1.402  -0.157  1.00  0.00    -0.030 A 
HETATM   13  C13 UNL     1      -2.539  -0.342  -0.363  1.00  0.00    -0.009 A 
HETATM   14  C14 UNL     1      -1.828   0.797  -0.310  1.00  0.00    -0.023 A 
HETATM   15  C15 UNL     1      -2.180  -2.826   0.012  1.00  0.00     0.030 C 
ENDROOT
TORSDOF 0
