REMARK  3 active torsions:
REMARK  status: ('A' for Active; 'I' for Inactive)
REMARK    1  A    between atoms: C2_2  and  O1_31 
REMARK    2  A    between atoms: C16_16  and  C19_19 
REMARK    3  A    between atoms: O1_31  and  C31_32 
ROOT
HETATM    1  C1  UNL     1       1.854  -2.005  -1.907  1.00  0.00     0.030 C 
HETATM    2  C2  UNL     1       1.608  -2.551  -0.251  1.00  0.00     0.124 C 
HETATM    3  C3  UNL     1       0.026  -2.631   0.505  1.00  0.00     0.026 C 
HETATM    4  C4  UNL     1      -1.213  -1.579  -0.359  1.00  0.00     0.003 A 
HETATM    5  C5  UNL     1      -0.818  -0.573  -1.897  1.00  0.00     0.000 C 
HETATM    6  C6  UNL     1       0.786  -0.958  -2.738  1.00  0.00     0.003 C 
HETATM    7  C7  UNL     1      -0.255   0.642  -1.332  1.00  0.00     0.003 C 
HETATM    8  C8  UNL     1       0.518  -0.529  -0.678  1.00  0.00     0.015 C 
HETATM    9  C9  UNL     1      -0.193  -2.258  -1.490  1.00  0.00     0.004 A 
HETATM   10  C10 UNL     1      -1.687  -2.618  -1.279  1.00  0.00     0.000 A 
HETATM   11  C11 UNL     1       1.907   0.437  -0.755  1.00  0.00    -0.050 C 
HETATM   12  C12 UNL     1       1.760   2.044  -0.693  1.00  0.00     0.015 C 
HETATM   13  C13 UNL     1       0.323   2.645  -0.337  1.00  0.00     0.004 C 
HETATM   14  C14 UNL     1      -0.920   1.761  -0.584  1.00  0.00     0.001 C 
HETATM   15  C15 UNL     1       2.747   2.662   0.387  1.00  0.00     0.004 C 
HETATM   16  C16 UNL     1       4.052   1.886   0.762  1.00  0.00     0.004 C 
HETATM   17  C17 UNL     1       4.367   0.972  -0.427  1.00  0.00     0.025 C 
HETATM   18  C18 UNL     1       3.194   0.047  -0.595  1.00  0.00    -0.035 C 
HETATM   19  C22 UNL     1       5.167   2.949   0.896  1.00  0.00     0.000 C 
HETATM   20  C23 UNL     1       4.433   4.271   1.121  1.00  0.00     0.000 C 
HETATM   21  C24 UNL     1       3.218   4.128   0.192  1.00  0.00     0.000 C 
HETATM   22  C25 UNL     1       2.191   5.228   0.489  1.00  0.00     0.000 C 
HETATM   23  C26 UNL     1       2.130   2.615  -2.101  1.00  0.00     0.004 C 
HETATM   24  C27 UNL     1       0.419  -0.152   0.868  1.00  0.00     0.004 C 
HETATM   25  C28 UNL     1      -1.942  -0.217  -2.891  1.00  0.00     0.000 C 
HETATM   26  C29 UNL     1       0.013  -2.540   2.088  1.00  0.00     0.002 C 
HETATM   27  C30 UNL     1      -0.343  -4.197   0.554  1.00  0.00     0.002 C 
ENDROOT
BRANCH   2  28
HETATM   28  O1  UNL     1       2.242  -3.806  -0.205  1.00  0.00    -0.304 OA
BRANCH  28  29
HETATM   29  C31 UNL     1       3.250  -4.040   0.681  1.00  0.00     0.272 C 
HETATM   30  C32 UNL     1       3.771  -5.453   0.505  1.00  0.00     0.106 C 
HETATM   31  O2  UNL     1       3.683  -3.255   1.494  1.00  0.00    -0.264 OA
ENDBRANCH  28  29
ENDBRANCH   2  28
BRANCH  16  32
HETATM   32  C19 UNL     1       3.912   1.062   2.088  1.00  0.00     0.000 C 
HETATM   33  C20 UNL     1       5.042   0.040   2.332  1.00  0.00     0.000 C 
HETATM   34  C21 UNL     1       3.746   1.893   3.378  1.00  0.00     0.000 C 
ENDBRANCH  16  32
TORSDOF 3
