REMARK  3 active torsions:
REMARK  status: ('A' for Active; 'I' for Inactive)
REMARK    1  A    between atoms: C2_2  and  O1_31 
REMARK    2  A    between atoms: C16_16  and  C19_19 
REMARK    3  A    between atoms: O1_31  and  C31_32 
ROOT
HETATM    1  C1  UNL     1      -2.357  -1.074   0.258  1.00  0.00     0.030 C 
HETATM    2  C2  UNL     1      -2.255  -2.509   0.759  1.00  0.00     0.124 C 
HETATM    3  C3  UNL     1      -1.065  -3.234   0.084  1.00  0.00     0.026 C 
HETATM    4  C4  UNL     1       0.128  -2.264  -0.213  1.00  0.00     0.007 C 
HETATM    5  C5  UNL     1       0.237  -0.961   0.625  1.00  0.00     0.004 C 
HETATM    6  C6  UNL     1      -1.136  -0.233   0.657  1.00  0.00     0.003 C 
HETATM    7  C7  UNL     1       1.295  -0.031  -0.066  1.00  0.00     0.018 C 
HETATM    8  C8  UNL     1       2.626  -0.724  -0.310  1.00  0.00    -0.049 C 
HETATM    9  C9  UNL     1       2.671  -2.065  -0.399  1.00  0.00    -0.035 C 
HETATM   10  C10 UNL     1       1.486  -2.981  -0.277  1.00  0.00     0.025 C 
HETATM   11  C11 UNL     1       3.913   0.120  -0.359  1.00  0.00     0.015 C 
HETATM   12  C12 UNL     1       3.643   1.561  -0.887  1.00  0.00     0.003 C 
HETATM   13  C13 UNL     1       2.564   2.228   0.016  1.00  0.00     0.001 C 
HETATM   14  C14 UNL     1       1.491   1.320   0.642  1.00  0.00     0.004 C 
HETATM   15  C15 UNL     1       4.967   2.409  -0.850  1.00  0.00     0.000 C 
HETATM   16  C16 UNL     1       6.310   1.714  -1.282  1.00  0.00     0.000 C 
HETATM   17  C17 UNL     1       5.994   0.374  -1.985  1.00  0.00     0.000 C 
HETATM   18  C18 UNL     1       4.990  -0.541  -1.263  1.00  0.00     0.004 C 
HETATM   19  C22 UNL     1       6.910   2.706  -2.315  1.00  0.00     0.000 C 
HETATM   20  C23 UNL     1       6.376   4.085  -1.933  1.00  0.00     0.000 C 
HETATM   21  C24 UNL     1       4.916   3.779  -1.577  1.00  0.00     0.000 C 
HETATM   22  C25 UNL     1       4.314   4.955  -0.794  1.00  0.00     0.000 C 
HETATM   23  C26 UNL     1       3.066   1.510  -2.331  1.00  0.00     0.000 C 
HETATM   24  C27 UNL     1       4.396   0.080   1.116  1.00  0.00     0.004 C 
HETATM   25  C28 UNL     1       0.722  -1.278   2.062  1.00  0.00     0.000 C 
HETATM   26  C29 UNL     1      -1.563  -3.806  -1.276  1.00  0.00     0.002 C 
HETATM   27  C30 UNL     1      -0.686  -4.485   0.915  1.00  0.00     0.002 C 
ENDROOT
BRANCH   2  28
HETATM   28  O1  UNL     1      -2.120  -2.505   2.151  1.00  0.00    -0.304 OA
BRANCH  28  29
HETATM   29  C31 UNL     1      -3.230  -2.557   2.933  1.00  0.00     0.272 C 
HETATM   30  C32 UNL     1      -2.821  -2.633   4.391  1.00  0.00     0.106 C 
HETATM   31  O2  UNL     1      -4.372  -2.561   2.534  1.00  0.00    -0.264 OA
ENDBRANCH  28  29
ENDBRANCH   2  28
BRANCH  16  32
HETATM   32  C19 UNL     1       7.354   1.420  -0.141  1.00  0.00     0.000 C 
HETATM   33  C20 UNL     1       8.785   1.061  -0.614  1.00  0.00     0.000 C 
HETATM   34  C21 UNL     1       7.527   2.479   0.969  1.00  0.00     0.000 C 
ENDBRANCH  16  32
TORSDOF 3
