REMARK  5 active torsions:
REMARK  status: ('A' for Active; 'I' for Inactive)
REMARK    1  A    between atoms: C1_2  and  C2_3 
REMARK    2  A    between atoms: C3_4  and  C4_5 
REMARK    3  A    between atoms: C4_5  and  C5_6 
REMARK    4  A    between atoms: C9_11  and  O7_25 
REMARK    5  A    between atoms: O7_25  and  C19_26 
ROOT
HETATM    1  C5  UNL     1       2.681   0.197  -1.093  1.00  0.00     0.081 C 
HETATM    2  C6  UNL     1       1.282  -0.384  -1.073  1.00  0.00    -0.010 C 
HETATM    3  C7  UNL     1       0.163   0.377  -1.051  1.00  0.00     0.036 C 
HETATM    4  C8  UNL     1      -1.198  -0.209  -1.054  1.00  0.00     0.205 C 
HETATM    5  O2  UNL     1      -2.185   0.475  -1.294  1.00  0.00    -0.288 OA
HETATM    6  C9  UNL     1      -1.292  -1.671  -0.588  1.00  0.00     0.210 C 
HETATM    7  C10 UNL     1      -0.171  -2.478  -1.257  1.00  0.00     0.206 C 
HETATM    8  C11 UNL     1       1.164  -1.833  -1.243  1.00  0.00     0.058 C 
HETATM    9  C12 UNL     1       2.284  -2.566  -1.449  1.00  0.00     0.121 C 
HETATM   10  O3  UNL     1       3.541  -2.044  -1.365  1.00  0.00    -0.305 OA
HETATM   11  C13 UNL     1       3.682  -0.864  -0.599  1.00  0.00     0.224 C 
HETATM   12  C14 UNL     1       3.619  -1.237   0.885  1.00  0.00     0.204 C 
HETATM   13  C15 UNL     1       4.533  -0.399   1.771  1.00  0.00     0.041 C 
HETATM   14  C16 UNL     1       5.964  -0.399   1.214  1.00  0.00     0.033 C 
HETATM   15  C17 UNL     1       6.018  -0.938  -0.217  1.00  0.00     0.118 C 
HETATM   16  O4  UNL     1       4.969  -0.398  -0.964  1.00  0.00    -0.335 OA
HETATM   17  C18 UNL     1       7.337  -0.560  -0.894  1.00  0.00     0.032 C 
HETATM   18  O5  UNL     1       2.305  -1.178   1.384  1.00  0.00    -0.218 OA
HETATM   19  O6  UNL     1      -0.353  -3.598  -1.720  1.00  0.00    -0.288 OA
HETATM   20  C21 UNL     1      -2.668  -2.220  -0.987  1.00  0.00     0.046 C 
ENDROOT
BRANCH   1  21
HETATM   21  C4  UNL     1       2.821   1.546  -0.356  1.00  0.00     0.035 C 
BRANCH  21  22
HETATM   22  C3  UNL     1       2.392   2.762  -1.143  1.00  0.00    -0.024 C 
HETATM   23  C2  UNL     1       2.158   3.984  -0.613  1.00  0.00     0.038 C 
HETATM   24  C22 UNL     1       2.291   4.298   0.858  1.00  0.00     0.037 C 
BRANCH  23  25
HETATM   25  C1  UNL     1       1.762   5.099  -1.512  1.00  0.00     0.206 C 
HETATM   26  O1  UNL     1       1.561   6.351  -1.050  1.00  0.00    -0.644 OA
HETATM   27  O9  UNL     1       1.602   4.932  -2.716  1.00  0.00    -0.644 OA
ENDBRANCH  23  25
ENDBRANCH  21  22
ENDBRANCH   1  21
BRANCH   6  28
HETATM   28  O7  UNL     1      -1.087  -1.633   0.815  1.00  0.00    -0.292 OA
BRANCH  28  29
HETATM   29  C19 UNL     1      -1.511  -2.605   1.663  1.00  0.00     0.273 C 
HETATM   30  C20 UNL     1      -1.227  -2.189   3.093  1.00  0.00     0.106 C 
HETATM   31  O8  UNL     1      -2.027  -3.651   1.346  1.00  0.00    -0.264 OA
ENDBRANCH  28  29
ENDBRANCH   6  28
TORSDOF 5
