REMARK  10 active torsions:
REMARK  status: ('A' for Active; 'I' for Inactive)
REMARK    1  A    between atoms: C4_4  and  O9_39 
REMARK    2  A    between atoms: C7_7  and  O7_35 
REMARK    3  A    between atoms: C14_16  and  O5_30 
REMARK    4  A    between atoms: C16_18  and  O3_19 
REMARK    5  A    between atoms: O3_19  and  C17_20 
REMARK    6  A    between atoms: C17_20  and  C18_21 
REMARK    7  A    between atoms: C19_22  and  C20_23 
REMARK    8  A    between atoms: O5_30  and  C26_31 
REMARK    9  A    between atoms: O7_35  and  C29_36 
REMARK   10  A    between atoms: O9_39  and  C31_40 
ROOT
HETATM    1  C1  UNL     1       3.809  -0.863   3.757  1.00  0.00     0.024 C 
HETATM    2  C2  UNL     1       3.558   0.619   3.407  1.00  0.00     0.013 C 
HETATM    3  C3  UNL     1       2.326   1.007   3.010  1.00  0.00    -0.018 C 
HETATM    4  C4  UNL     1       1.237  -0.036   2.813  1.00  0.00     0.142 C 
HETATM    5  C5  UNL     1       1.843  -1.223   2.058  1.00  0.00     0.038 C 
HETATM    6  C6  UNL     1       3.113  -1.816   2.707  1.00  0.00     0.039 C 
HETATM    7  C7  UNL     1       3.934  -2.657   1.653  1.00  0.00     0.146 C 
HETATM    8  C8  UNL     1       4.439  -2.115   0.294  1.00  0.00    -0.003 C 
HETATM    9  C9  UNL     1       4.743  -0.861  -0.094  1.00  0.00    -0.018 C 
HETATM   10  C10 UNL     1       4.554   0.285   0.824  1.00  0.00     0.034 C 
HETATM   11  C11 UNL     1       5.680   1.302   0.992  1.00  0.00     0.088 C 
HETATM   12  C12 UNL     1       5.126   2.251   2.075  1.00  0.00     0.213 C 
HETATM   13  C13 UNL     1       4.678   1.647   3.411  1.00  0.00     0.226 C 
HETATM   14  O1  UNL     1       5.293   1.902   4.436  1.00  0.00    -0.284 OA
HETATM   15  O2  UNL     1       5.069   3.455   1.878  1.00  0.00    -0.288 OA
HETATM   16  C14 UNL     1       5.872   1.859  -0.434  1.00  0.00     0.134 C 
HETATM   17  C15 UNL     1       6.223   0.707  -1.402  1.00  0.00     0.065 C 
HETATM   18  C16 UNL     1       5.165  -0.413  -1.477  1.00  0.00     0.145 C 
HETATM   19  C28 UNL     1       7.000   0.714   1.533  1.00  0.00     0.011 C 
HETATM   20  C33 UNL     1       1.945   2.439   2.711  1.00  0.00     0.029 C 
HETATM   21  C34 UNL     1       3.235  -1.052   5.193  1.00  0.00     0.004 C 
HETATM   22  C35 UNL     1       5.296  -1.255   3.947  1.00  0.00     0.004 C 
ENDROOT
BRANCH  18  23
HETATM   23  O3  UNL     1       4.050   0.110  -2.163  1.00  0.00    -0.297 OA
BRANCH  23  24
HETATM   24  C17 UNL     1       3.421  -0.640  -3.112  1.00  0.00     0.296 C 
HETATM   25  O4  UNL     1       3.654  -1.841  -3.231  1.00  0.00    -0.259 OA
BRANCH  24  26
HETATM   26  C18 UNL     1       2.539   0.034  -4.094  1.00  0.00     0.068 C 
HETATM   27  C19 UNL     1       1.969  -0.599  -5.148  1.00  0.00     0.005 C 
BRANCH  27  28
HETATM   28  C20 UNL     1       1.097   0.047  -6.140  1.00  0.00     0.000 A 
HETATM   29  C21 UNL     1       0.792  -0.648  -7.324  1.00  0.00     0.000 A 
HETATM   30  C22 UNL     1      -0.045  -0.091  -8.291  1.00  0.00     0.000 A 
HETATM   31  C23 UNL     1      -0.608   1.171  -8.088  1.00  0.00     0.000 A 
HETATM   32  C24 UNL     1      -0.333   1.865  -6.910  1.00  0.00     0.000 A 
HETATM   33  C25 UNL     1       0.507   1.307  -5.944  1.00  0.00     0.000 A 
ENDBRANCH  27  28
ENDBRANCH  24  26
ENDBRANCH  23  24
ENDBRANCH  18  23
BRANCH  16  34
HETATM   34  O5  UNL     1       6.889   2.822  -0.438  1.00  0.00    -0.304 OA
BRANCH  34  35
HETATM   35  C26 UNL     1       6.911   3.722  -1.459  1.00  0.00     0.272 C 
HETATM   36  C27 UNL     1       8.059   4.695  -1.279  1.00  0.00     0.106 C 
HETATM   37  O6  UNL     1       6.131   3.744  -2.384  1.00  0.00    -0.264 OA
ENDBRANCH  34  35
ENDBRANCH  16  34
BRANCH   7  38
HETATM   38  O7  UNL     1       3.151  -3.796   1.326  1.00  0.00    -0.300 OA
BRANCH  38  39
HETATM   39  C29 UNL     1       3.079  -4.824   2.216  1.00  0.00     0.273 C 
HETATM   40  C30 UNL     1       2.096  -5.868   1.728  1.00  0.00     0.106 C 
HETATM   41  O8  UNL     1       3.692  -4.890   3.257  1.00  0.00    -0.264 OA
ENDBRANCH  38  39
ENDBRANCH   7  38
BRANCH   4  42
HETATM   42  O9  UNL     1       0.144   0.481   2.087  1.00  0.00    -0.300 OA
BRANCH  42  43
HETATM   43  C31 UNL     1      -1.023  -0.220   2.110  1.00  0.00     0.273 C 
HETATM   44  C32 UNL     1      -2.081   0.500   1.299  1.00  0.00     0.106 C 
HETATM   45  O10 UNL     1      -1.202  -1.261   2.702  1.00  0.00    -0.264 OA
ENDBRANCH  42  43
ENDBRANCH   4  42
TORSDOF 10
