REMARK  8 active torsions:
REMARK  status: ('A' for Active; 'I' for Inactive)
REMARK    1  A    between atoms: C3_3  and  O4_10 
REMARK    2  A    between atoms: C5_6  and  C6_7 
REMARK    3  A    between atoms: O4_10  and  C7_11 
REMARK    4  A    between atoms: C8_13  and  C12_20 
REMARK    5  A    between atoms: C12_20  and  O9_21 
REMARK    6  A    between atoms: O9_21  and  C13_22 
REMARK    7  A    between atoms: C13_22  and  C14_24 
REMARK    8  A    between atoms: C35_47  and  C38_50 
ROOT
HETATM    1  O9  UNL     1       3.313  -0.261   0.276  1.00  0.00    -0.299 OA
ENDROOT
BRANCH   1   2
HETATM    2  C12 UNL     1       2.560  -0.938   1.229  1.00  0.00     0.184 C 
BRANCH   2   3
HETATM    3  C8  UNL     1       3.449  -1.034   2.452  1.00  0.00     0.181 C 
HETATM    4  O5  UNL     1       2.797  -0.386   3.499  1.00  0.00    -0.326 OA
HETATM    5  C7  UNL     1       3.562  -0.414   4.680  1.00  0.00     0.272 C 
HETATM    6  C11 UNL     1       3.742  -1.853   5.095  1.00  0.00     0.241 C 
HETATM    7  C10 UNL     1       4.487  -2.635   4.035  1.00  0.00     0.220 C 
HETATM    8  O6  UNL     1       4.451  -1.869   6.304  1.00  0.00    -0.215 OA
HETATM    9  C9  UNL     1       3.739  -2.496   2.733  1.00  0.00     0.215 C 
HETATM   10  O7  UNL     1       4.519  -3.997   4.380  1.00  0.00    -0.218 OA
HETATM   11  O8  UNL     1       4.525  -3.019   1.685  1.00  0.00    -0.218 OA
BRANCH   5  12
HETATM   12  O4  UNL     1       2.679   0.210   5.575  1.00  0.00    -0.304 OA
BRANCH  12  13
HETATM   13  C3  UNL     1       3.064   1.408   6.178  1.00  0.00     0.246 C 
HETATM   14  C2  UNL     1       1.910   1.813   7.078  1.00  0.00     0.082 C 
HETATM   15  C1  UNL     1       2.178   3.200   7.712  1.00  0.00     0.043 C 
HETATM   16  C35 UNL     1       0.519   1.963   6.489  1.00  0.00    -0.011 C 
HETATM   17  C5  UNL     1       2.990   4.080   6.787  1.00  0.00     0.067 C 
HETATM   18  C37 UNL     1       0.782   3.817   7.951  1.00  0.00     0.031 C 
HETATM   19  C4  UNL     1       3.433   3.635   5.593  1.00  0.00     0.121 C 
HETATM   20  O1  UNL     1       3.299   2.346   5.165  1.00  0.00    -0.303 OA
HETATM   21  C36 UNL     1      -0.079   3.046   7.002  1.00  0.00    -0.032 C 
BRANCH  17  22
HETATM   22  C6  UNL     1       3.276   5.486   7.198  1.00  0.00     0.209 C 
HETATM   23  O2  UNL     1       2.881   5.971   8.387  1.00  0.00    -0.644 OA
HETATM   24  O3  UNL     1       3.901   6.239   6.461  1.00  0.00    -0.644 OA
ENDBRANCH  17  22
BRANCH  16  25
HETATM   25  C38 UNL     1      -0.291   1.018   5.633  1.00  0.00     0.204 C 
HETATM   26  O12 UNL     1       0.274  -0.246   5.328  1.00  0.00    -0.216 OA
ENDBRANCH  16  25
ENDBRANCH  12  13
ENDBRANCH   5  12
ENDBRANCH   2   3
ENDBRANCH   1   2
BRANCH   1  27
HETATM   27  C13 UNL     1       2.884  -0.127  -0.986  1.00  0.00     0.271 C 
HETATM   28  O10 UNL     1       3.559   0.516  -1.754  1.00  0.00    -0.264 OA
BRANCH  27  29
HETATM   29  C14 UNL     1       1.536  -0.745  -1.356  1.00  0.00     0.087 C 
HETATM   30  C15 UNL     1       1.475  -1.643  -2.616  1.00  0.00     0.017 C 
HETATM   31  C16 UNL     1       0.626  -0.955  -3.739  1.00  0.00     0.057 C 
HETATM   32  C17 UNL     1      -0.367   0.015  -2.549  1.00  0.00     0.007 A 
HETATM   33  C25 UNL     1       1.745  -0.264  -4.969  1.00  0.00     0.038 C 
HETATM   34  C31 UNL     1      -0.522  -1.849  -4.412  1.00  0.00     0.166 C 
HETATM   35  C18 UNL     1       0.633   0.439  -1.622  1.00  0.00     0.010 A 
HETATM   36  C21 UNL     1      -1.393   0.977  -2.893  1.00  0.00     0.000 C 
HETATM   37  C19 UNL     1       0.767   1.060  -2.986  1.00  0.00     0.001 A 
HETATM   38  C20 UNL     1      -0.806   0.726  -4.091  1.00  0.00     0.000 C 
HETATM   39  C22 UNL     1      -0.602   2.496  -3.345  1.00  0.00     0.000 C 
HETATM   40  C23 UNL     1       0.507   2.401  -4.694  1.00  0.00     0.002 C 
HETATM   41  C24 UNL     1       1.029   0.996  -5.485  1.00  0.00     0.033 C 
HETATM   42  C27 UNL     1       0.175  -0.211  -6.033  1.00  0.00     0.217 C 
HETATM   43  N1  UNL     1       0.971  -1.904  -5.944  1.00  0.00    -0.003 N 
HETATM   44  C26 UNL     1       1.915  -1.080  -6.497  1.00  0.00     0.222 A 
HETATM   45  C28 UNL     1       0.377  -3.328  -6.901  1.00  0.00     0.221 C 
HETATM   46  C32 UNL     1       0.643  -1.481  -7.391  1.00  0.00     0.238 A 
HETATM   47  C29 UNL     1      -1.210  -3.313  -6.837  1.00  0.00     0.054 C 
HETATM   48  C30 UNL     1      -0.758  -2.098  -6.096  1.00  0.00     0.022 C 
HETATM   49  C33 UNL     1      -2.006  -4.419  -6.092  1.00  0.00     0.006 C 
HETATM   50  C34 UNL     1       3.263  -0.039  -4.686  1.00  0.00     0.002 C 
HETATM   51  O11 UNL     1      -1.250  -2.386  -3.596  1.00  0.00    -0.292 OA
ENDBRANCH  27  29
ENDBRANCH   1  27
TORSDOF 8
