REMARK  5 active torsions:
REMARK  status: ('A' for Active; 'I' for Inactive)
REMARK    1  A    between atoms: C10_13  and  C12_15 
REMARK    2  A    between atoms: C12_15  and  C13_16 
REMARK    3  A    between atoms: C13_16  and  O4_17 
REMARK    4  A    between atoms: O4_17  and  C14_18 
REMARK    5  A    between atoms: C14_18  and  C15_20 
ROOT
HETATM    1  C1  UNL     1      -0.609  -1.933   1.392  1.00  0.00     0.023 A 
HETATM    2  C2  UNL     1       0.087  -0.968   0.637  1.00  0.00     0.101 A 
HETATM    3  O1  UNL     1      -0.491  -0.163  -0.303  1.00  0.00    -0.273 OA
HETATM    4  C3  UNL     1      -1.826  -0.322  -0.517  1.00  0.00     0.300 A 
HETATM    5  C4  UNL     1      -2.639  -1.314   0.223  1.00  0.00     0.069 A 
HETATM    6  C5  UNL     1      -2.041  -2.093   1.151  1.00  0.00     0.007 A 
HETATM    7  O2  UNL     1      -2.399   0.374  -1.354  1.00  0.00    -0.259 OA
HETATM    8  C6  UNL     1       1.454  -0.863   0.897  1.00  0.00     0.025 A 
HETATM    9  C7  UNL     1       2.098  -1.663   1.834  1.00  0.00     0.092 A 
HETATM   10  C8  UNL     1       1.406  -2.608   2.592  1.00  0.00     0.024 A 
HETATM   11  C9  UNL     1       0.038  -2.732   2.356  1.00  0.00     0.004 A 
HETATM   12  O3  UNL     1       3.445  -1.382   1.875  1.00  0.00    -0.331 OA
HETATM   13  C10 UNL     1       3.765  -0.535   0.766  1.00  0.00     0.156 C 
HETATM   14  C11 UNL     1       2.437   0.078   0.262  1.00  0.00     0.063 C 
ENDROOT
BRANCH  13  15
HETATM   15  C12 UNL     1       4.889   0.457   1.089  1.00  0.00     0.180 C 
HETATM   16  C19 UNL     1       6.055  -0.286   1.751  1.00  0.00     0.038 C 
HETATM   17  O6  UNL     1       4.413   1.410   2.002  1.00  0.00    -0.221 OA
BRANCH  15  18
HETATM   18  C13 UNL     1       5.309   1.208  -0.174  1.00  0.00     0.185 C 
BRANCH  18  19
HETATM   19  O4  UNL     1       6.435   1.995   0.102  1.00  0.00    -0.296 OA
BRANCH  19  20
HETATM   20  C14 UNL     1       7.300   2.341  -0.897  1.00  0.00     0.291 C 
HETATM   21  O5  UNL     1       8.221   3.103  -0.644  1.00  0.00    -0.260 OA
BRANCH  20  22
HETATM   22  C15 UNL     1       7.179   1.916  -2.345  1.00  0.00     0.037 C 
HETATM   23  C16 UNL     1       6.957   3.034  -3.336  1.00  0.00     0.036 C 
HETATM   24  C17 UNL     1       7.316   0.635  -2.719  1.00  0.00    -0.025 C 
HETATM   25  C18 UNL     1       7.643  -0.546  -1.834  1.00  0.00     0.030 C 
ENDBRANCH  20  22
ENDBRANCH  19  20
ENDBRANCH  18  19
ENDBRANCH  15  18
ENDBRANCH  13  15
TORSDOF 5
