REMARK  7 active torsions:
REMARK  status: ('A' for Active; 'I' for Inactive)
REMARK    1  A    between atoms: C9_10  and  C10_12 
REMARK    2  A    between atoms: C10_12  and  C11_13 
REMARK    3  A    between atoms: C11_13  and  C12_14 
REMARK    4  A    between atoms: C12_14  and  C13_15 
REMARK    5  A    between atoms: C13_15  and  C14_16 
REMARK    6  A    between atoms: C14_16  and  C15_17 
REMARK    7  A    between atoms: C15_17  and  C16_18 
ROOT
HETATM    1  C1  UNL     1       3.511  -3.917   2.497  1.00  0.00     0.023 A 
HETATM    2  C2  UNL     1       2.264  -4.199   1.930  1.00  0.00    -0.018 A 
HETATM    3  C3  UNL     1       1.320  -3.172   1.861  1.00  0.00     0.020 A 
HETATM    4  C4  UNL     1       1.590  -1.871   2.305  1.00  0.00     0.096 A 
HETATM    5  C5  UNL     1       2.850  -1.640   2.880  1.00  0.00     0.047 A 
HETATM    6  C6  UNL     1       3.825  -2.647   2.983  1.00  0.00     0.133 A 
HETATM    7  O1  UNL     1       5.051  -2.410   3.520  1.00  0.00    -0.190 OA
HETATM    8  C7  UNL     1       3.150  -0.270   3.293  1.00  0.00     0.002 C 
HETATM    9  C8  UNL     1       2.150   0.628   3.301  1.00  0.00     0.001 C 
HETATM   10  C9  UNL     1       0.717   0.235   3.009  1.00  0.00     0.117 C 
HETATM   11  O2  UNL     1       0.624  -0.909   2.198  1.00  0.00    -0.332 OA
HETATM   12  C21 UNL     1       0.036  -0.049   4.354  1.00  0.00     0.035 C 
HETATM   13  C22 UNL     1       1.968  -5.580   1.400  1.00  0.00     0.031 C 
ENDROOT
BRANCH  10  14
HETATM   14  C10 UNL     1       0.027   1.376   2.237  1.00  0.00     0.035 C 
BRANCH  14  15
HETATM   15  C11 UNL     1      -1.492   1.203   2.052  1.00  0.00     0.040 C 
BRANCH  15  16
HETATM   16  C12 UNL     1      -2.024   1.904   0.798  1.00  0.00     0.171 C 
HETATM   17  O3  UNL     1      -3.440   1.922   0.865  1.00  0.00    -0.219 OA
BRANCH  16  18
HETATM   18  C13 UNL     1      -1.622   1.319  -0.546  1.00  0.00    -0.014 C 
HETATM   19  C20 UNL     1      -1.230   0.042  -0.692  1.00  0.00    -0.007 C 
BRANCH  18  20
HETATM   20  C14 UNL     1      -1.735   2.277  -1.719  1.00  0.00     0.029 C 
BRANCH  20  21
HETATM   21  C15 UNL     1      -1.588   1.660  -3.120  1.00  0.00     0.030 C 
BRANCH  21  22
HETATM   22  C16 UNL     1      -1.802   2.656  -4.233  1.00  0.00    -0.034 C 
HETATM   23  C17 UNL     1      -1.873   2.349  -5.541  1.00  0.00    -0.048 C 
HETATM   24  C18 UNL     1      -2.092   3.413  -6.591  1.00  0.00     0.026 C 
HETATM   25  C19 UNL     1      -1.738   0.946  -6.085  1.00  0.00     0.026 C 
ENDBRANCH  21  22
ENDBRANCH  20  21
ENDBRANCH  18  20
ENDBRANCH  16  18
ENDBRANCH  15  16
ENDBRANCH  14  15
ENDBRANCH  10  14
TORSDOF 7
