REMARK  7 active torsions:
REMARK  status: ('A' for Active; 'I' for Inactive)
REMARK    1  A    between atoms: C9_10  and  C10_12 
REMARK    2  A    between atoms: C10_12  and  C11_13 
REMARK    3  A    between atoms: C11_13  and  C12_14 
REMARK    4  A    between atoms: C13_15  and  C14_16 
REMARK    5  A    between atoms: C14_16  and  C15_17 
REMARK    6  A    between atoms: C15_17  and  C16_18 
REMARK    7  A    between atoms: C16_18  and  C17_19 
ROOT
HETATM    1  C1  UNL     1       5.096  -5.375   1.464  1.00  0.00     0.023 A 
HETATM    2  C2  UNL     1       3.974  -5.652   0.675  1.00  0.00    -0.018 A 
HETATM    3  C3  UNL     1       3.015  -4.649   0.514  1.00  0.00     0.020 A 
HETATM    4  C4  UNL     1       3.149  -3.384   1.100  1.00  0.00     0.096 A 
HETATM    5  C5  UNL     1       4.262  -3.173   1.928  1.00  0.00     0.047 A 
HETATM    6  C6  UNL     1       5.263  -4.145   2.100  1.00  0.00     0.133 A 
HETATM    7  O1  UNL     1       6.364  -3.918   2.863  1.00  0.00    -0.190 OA
HETATM    8  C7  UNL     1       4.386  -1.857   2.555  1.00  0.00     0.002 C 
HETATM    9  C8  UNL     1       3.327  -1.030   2.508  1.00  0.00     0.001 C 
HETATM   10  C9  UNL     1       2.011  -1.450   1.887  1.00  0.00     0.117 C 
HETATM   11  O2  UNL     1       2.174  -2.445   0.910  1.00  0.00    -0.332 OA
HETATM   12  C21 UNL     1       1.109  -1.996   3.000  1.00  0.00     0.035 C 
HETATM   13  C22 UNL     1       3.819  -7.002   0.021  1.00  0.00     0.031 C 
ENDROOT
BRANCH  10  14
HETATM   14  C10 UNL     1       1.385  -0.230   1.190  1.00  0.00     0.037 C 
BRANCH  14  15
HETATM   15  C11 UNL     1       0.108  -0.519   0.381  1.00  0.00     0.028 C 
BRANCH  15  16
HETATM   16  C12 UNL     1      -0.226   0.666  -0.492  1.00  0.00    -0.035 C 
HETATM   17  C13 UNL     1      -1.222   1.558  -0.347  1.00  0.00    -0.048 C 
HETATM   18  C20 UNL     1      -2.240   1.514   0.771  1.00  0.00     0.026 C 
BRANCH  17  19
HETATM   19  C14 UNL     1      -1.436   2.719  -1.306  1.00  0.00     0.025 C 
BRANCH  19  20
HETATM   20  C15 UNL     1      -0.375   2.933  -2.399  1.00  0.00     0.042 C 
BRANCH  20  21
HETATM   21  C16 UNL     1      -0.676   4.128  -3.307  1.00  0.00     0.171 C 
HETATM   22  O3  UNL     1       0.337   4.216  -4.294  1.00  0.00    -0.219 OA
BRANCH  21  23
HETATM   23  C17 UNL     1      -0.792   5.483  -2.642  1.00  0.00    -0.014 C 
HETATM   24  C18 UNL     1      -1.766   6.444  -3.280  1.00  0.00     0.029 C 
HETATM   25  C19 UNL     1      -0.042   5.851  -1.591  1.00  0.00    -0.007 C 
ENDBRANCH  21  23
ENDBRANCH  20  21
ENDBRANCH  19  20
ENDBRANCH  17  19
ENDBRANCH  15  16
ENDBRANCH  14  15
ENDBRANCH  10  14
TORSDOF 7
