REMARK  4 active torsions:
REMARK  status: ('A' for Active; 'I' for Inactive)
REMARK    1  A    between atoms: C5_5  and  C7_8 
REMARK    2  A    between atoms: C7_8  and  C8_9 
REMARK    3  A    between atoms: C8_9  and  C9_10 
REMARK    4  A    between atoms: C9_10  and  C10_11 
ROOT
HETATM    1  C7  UNL     1       0.182  -1.839   0.549  1.00  0.00     0.194 C 
HETATM    2  O3  UNL     1      -0.663  -2.686   0.839  1.00  0.00    -0.287 OA
ENDROOT
BRANCH   1   3
HETATM    3  C5  UNL     1       1.611  -2.286   0.635  1.00  0.00     0.064 A 
HETATM    4  C4  UNL     1       1.809  -3.649   0.940  1.00  0.00     0.007 A 
HETATM    5  C3  UNL     1       3.075  -4.222   1.068  1.00  0.00     0.028 A 
HETATM    6  C2  UNL     1       4.221  -3.453   0.890  1.00  0.00     0.133 A 
HETATM    7  C1  UNL     1       4.028  -2.105   0.583  1.00  0.00     0.055 A 
HETATM    8  O4  UNL     1       5.464  -3.988   1.016  1.00  0.00    -0.190 OA
HETATM    9  C6  UNL     1       2.772  -1.504   0.449  1.00  0.00     0.136 A 
HETATM   10  O1  UNL     1       2.778  -0.183   0.162  1.00  0.00    -0.190 OA
ENDBRANCH   1   3
BRANCH   1  11
HETATM   11  C8  UNL     1      -0.491  -0.519   0.155  1.00  0.00     0.021 C 
BRANCH  11  12
HETATM   12  C9  UNL     1       0.239   0.774  -0.205  1.00  0.00     0.056 C 
BRANCH  12  13
HETATM   13  C10 UNL     1      -0.597   1.991  -0.550  1.00  0.00    -0.018 A 
HETATM   14  C11 UNL     1       0.065   3.183  -0.874  1.00  0.00    -0.002 A 
HETATM   15  C12 UNL     1      -0.640   4.345  -1.191  1.00  0.00     0.027 A 
HETATM   16  C13 UNL     1      -2.037   4.363  -1.198  1.00  0.00     0.131 A 
HETATM   17  C14 UNL     1      -2.698   3.173  -0.878  1.00  0.00     0.027 A 
HETATM   18  O2  UNL     1      -2.730   5.492  -1.503  1.00  0.00    -0.190 OA
HETATM   19  C15 UNL     1      -1.996   2.008  -0.560  1.00  0.00    -0.002 A 
ENDBRANCH  12  13
ENDBRANCH  11  12
ENDBRANCH   1  11
TORSDOF 4
