REMARK  7 active torsions:
REMARK  status: ('A' for Active; 'I' for Inactive)
REMARK    1  A    between atoms: C3_3  and  O2_7 
REMARK    2  A    between atoms: O2_7  and  C6_8 
REMARK    3  A    between atoms: C7_10  and  C11_17 
REMARK    4  A    between atoms: C12_19  and  C15_23 
REMARK    5  A    between atoms: C15_23  and  O9_24 
REMARK    6  A    between atoms: O9_24  and  C16_25 
REMARK    7  A    between atoms: C16_25  and  C17_26 
ROOT
HETATM    1  C1  UNL     1       2.404   3.929   0.463  1.00  0.00     0.046 C 
HETATM    2  C2  UNL     1       2.590   2.406   0.646  1.00  0.00     0.080 C 
HETATM    3  C3  UNL     1       3.827   1.861  -0.059  1.00  0.00     0.241 C 
HETATM    4  O1  UNL     1       4.952   2.648   0.259  1.00  0.00    -0.331 OA
HETATM    5  C4  UNL     1       4.829   3.951  -0.249  1.00  0.00     0.145 C 
HETATM    6  C5  UNL     1       3.727   4.697   0.492  1.00  0.00     0.036 C 
HETATM    7  C12 UNL     1       1.324   1.891   0.007  1.00  0.00    -0.011 C 
HETATM    8  C13 UNL     1       0.783   2.804  -0.812  1.00  0.00     0.000 C 
HETATM    9  C14 UNL     1       1.560   4.088  -0.807  1.00  0.00     0.174 C 
HETATM   10  O8  UNL     1       0.690   5.197  -0.701  1.00  0.00    -0.219 OA
ENDROOT
BRANCH   3  11
HETATM   11  O2  UNL     1       4.112   0.589   0.479  1.00  0.00    -0.304 OA
BRANCH  11  12
HETATM   12  C6  UNL     1       5.242  -0.072  -0.048  1.00  0.00     0.272 C 
HETATM   13  O3  UNL     1       4.739  -1.223  -0.693  1.00  0.00    -0.326 OA
HETATM   14  C7  UNL     1       5.759  -2.043  -1.208  1.00  0.00     0.184 C 
HETATM   15  C8  UNL     1       6.695  -2.498  -0.093  1.00  0.00     0.215 C 
HETATM   16  C9  UNL     1       7.260  -1.310   0.657  1.00  0.00     0.220 C 
HETATM   17  O6  UNL     1       7.783  -3.222  -0.616  1.00  0.00    -0.218 OA
HETATM   18  C10 UNL     1       6.107  -0.459   1.129  1.00  0.00     0.241 C 
HETATM   19  O5  UNL     1       7.998  -1.760   1.765  1.00  0.00    -0.218 OA
HETATM   20  O4  UNL     1       6.606   0.709   1.731  1.00  0.00    -0.215 OA
BRANCH  14  21
HETATM   21  C11 UNL     1       5.122  -3.230  -1.927  1.00  0.00     0.214 C 
HETATM   22  O7  UNL     1       5.508  -3.241  -3.287  1.00  0.00    -0.218 OA
ENDBRANCH  14  21
ENDBRANCH  11  12
ENDBRANCH   3  11
BRANCH   7  23
HETATM   23  C15 UNL     1       0.761   0.521   0.250  1.00  0.00     0.174 C 
BRANCH  23  24
HETATM   24  O9  UNL     1       1.470  -0.168   1.255  1.00  0.00    -0.294 OA
BRANCH  24  25
HETATM   25  C16 UNL     1       1.178  -1.484   1.479  1.00  0.00     0.296 C 
HETATM   26  O10 UNL     1       1.908  -2.147   2.208  1.00  0.00    -0.259 OA
BRANCH  25  27
HETATM   27  C17 UNL     1      -0.013  -2.201   0.902  1.00  0.00     0.063 A 
HETATM   28  C18 UNL     1       0.163  -3.415   0.232  1.00  0.00     0.005 A 
HETATM   29  C19 UNL     1      -0.942  -4.061  -0.329  1.00  0.00     0.000 A 
HETATM   30  C20 UNL     1      -2.216  -3.507  -0.207  1.00  0.00     0.000 A 
HETATM   31  C21 UNL     1      -2.398  -2.318   0.502  1.00  0.00     0.000 A 
HETATM   32  C22 UNL     1      -1.298  -1.672   1.066  1.00  0.00     0.005 A 
ENDBRANCH  25  27
ENDBRANCH  24  25
ENDBRANCH  23  24
ENDBRANCH   7  23
TORSDOF 7
