REMARK  6 active torsions:
REMARK  status: ('A' for Active; 'I' for Inactive)
REMARK    1  A    between atoms: C6_6  and  C7_7 
REMARK    2  A    between atoms: C8_8  and  C23_27 
REMARK    3  A    between atoms: C11_11  and  C12_12 
REMARK    4  A    between atoms: C12_12  and  C13_13 
REMARK    5  A    between atoms: C29_36  and  C37_46 
REMARK    6  A    between atoms: C30_37  and  C31_38 
ROOT
HETATM    1  C7  UNL     1       2.565   0.053  -0.140  1.00  0.00     0.037 C 
HETATM    2  C8  UNL     1       1.230   0.560   0.479  1.00  0.00     0.051 C 
HETATM    3  C9  UNL     1       0.640   1.355  -0.657  1.00  0.00     0.004 A 
HETATM    4  C10 UNL     1       1.559   1.567  -1.678  1.00  0.00    -0.019 A 
HETATM    5  C11 UNL     1       2.883   0.930  -1.385  1.00  0.00     0.061 C 
HETATM    6  C19 UNL     1       1.178   2.159  -2.879  1.00  0.00     0.023 A 
HETATM    7  C20 UNL     1      -0.131   2.623  -3.034  1.00  0.00     0.133 A 
HETATM    8  C21 UNL     1      -1.038   2.403  -1.991  1.00  0.00     0.054 A 
HETATM    9  C22 UNL     1      -0.687   1.771  -0.793  1.00  0.00     0.129 A 
HETATM   10  O3  UNL     1      -1.642   1.447   0.118  1.00  0.00    -0.190 OA
HETATM   11  O4  UNL     1      -0.546   3.094  -4.238  1.00  0.00    -0.190 OA
ENDROOT
BRANCH   1  12
HETATM   12  C6  UNL     1       2.752  -1.417  -0.529  1.00  0.00    -0.021 A 
HETATM   13  C1  UNL     1       1.779  -2.413  -0.711  1.00  0.00     0.003 A 
HETATM   14  C2  UNL     1       2.155  -3.691  -1.131  1.00  0.00     0.092 A 
HETATM   15  C30 UNL     1       0.277  -2.409  -0.552  1.00  0.00     0.078 C 
HETATM   16  C3  UNL     1       3.473  -4.048  -1.401  1.00  0.00     0.051 A 
HETATM   17  O7  UNL     1       1.083  -4.552  -1.234  1.00  0.00    -0.329 OA
HETATM   18  C4  UNL     1       4.467  -3.084  -1.234  1.00  0.00     0.133 A 
HETATM   19  C5  UNL     1       4.077  -1.811  -0.802  1.00  0.00     0.023 A 
HETATM   20  O6  UNL     1       5.771  -3.367  -1.490  1.00  0.00    -0.190 OA
HETATM   21  C29 UNL     1      -0.080  -3.909  -0.726  1.00  0.00     0.152 C 
BRANCH  21  22
HETATM   22  C37 UNL     1      -0.498  -4.512   0.600  1.00  0.00     0.006 A 
HETATM   23  C38 UNL     1      -1.849  -4.599   0.950  1.00  0.00     0.000 A 
HETATM   24  C39 UNL     1      -2.238  -5.102   2.193  1.00  0.00     0.027 A 
HETATM   25  C40 UNL     1      -1.294  -5.530   3.132  1.00  0.00     0.131 A 
HETATM   26  C41 UNL     1       0.056  -5.434   2.782  1.00  0.00     0.027 A 
HETATM   27  O10 UNL     1      -1.663  -6.008   4.349  1.00  0.00    -0.190 OA
HETATM   28  C42 UNL     1       0.450  -4.931   1.540  1.00  0.00     0.000 A 
ENDBRANCH  21  22
BRANCH  15  29
HETATM   29  C31 UNL     1      -0.464  -1.577  -1.575  1.00  0.00    -0.011 A 
HETATM   30  C32 UNL     1      -1.763  -1.150  -1.284  1.00  0.00     0.024 A 
HETATM   31  C33 UNL     1      -2.497  -0.361  -2.173  1.00  0.00     0.133 A 
HETATM   32  C34 UNL     1      -1.906  -0.029  -3.394  1.00  0.00     0.055 A 
HETATM   33  O9  UNL     1      -3.716   0.132  -1.834  1.00  0.00    -0.190 OA
HETATM   34  C35 UNL     1      -0.613  -0.438  -3.732  1.00  0.00     0.133 A 
HETATM   35  C36 UNL     1       0.091  -1.216  -2.807  1.00  0.00     0.024 A 
HETATM   36  O8  UNL     1      -0.027  -0.025  -4.887  1.00  0.00    -0.190 OA
ENDBRANCH  15  29
ENDBRANCH   1  12
BRANCH   2  37
HETATM   37  C23 UNL     1       1.403   1.352   1.766  1.00  0.00    -0.018 A 
HETATM   38  C24 UNL     1       0.799   2.596   1.986  1.00  0.00    -0.002 A 
HETATM   39  C25 UNL     1       0.982   3.296   3.180  1.00  0.00     0.027 A 
HETATM   40  C26 UNL     1       1.804   2.801   4.195  1.00  0.00     0.131 A 
HETATM   41  C27 UNL     1       2.347   1.527   4.011  1.00  0.00     0.027 A 
HETATM   42  O5  UNL     1       2.048   3.516   5.323  1.00  0.00    -0.190 OA
HETATM   43  C28 UNL     1       2.133   0.810   2.832  1.00  0.00    -0.002 A 
ENDBRANCH   2  37
BRANCH   5  44
HETATM   44  C12 UNL     1       4.002   1.962  -1.207  1.00  0.00     0.179 C 
HETATM   45  O2  UNL     1       4.136   2.683  -2.417  1.00  0.00    -0.218 OA
BRANCH  44  46
HETATM   46  C13 UNL     1       3.789   2.936  -0.071  1.00  0.00     0.008 A 
HETATM   47  C14 UNL     1       2.958   4.054  -0.207  1.00  0.00     0.000 A 
HETATM   48  C15 UNL     1       2.747   4.927   0.861  1.00  0.00     0.027 A 
HETATM   49  C16 UNL     1       3.363   4.725   2.100  1.00  0.00     0.131 A 
HETATM   50  C17 UNL     1       4.196   3.611   2.231  1.00  0.00     0.027 A 
HETATM   51  O1  UNL     1       3.067   5.499   3.179  1.00  0.00    -0.190 OA
HETATM   52  C18 UNL     1       4.425   2.745   1.161  1.00  0.00     0.000 A 
ENDBRANCH  44  46
ENDBRANCH   5  44
TORSDOF 6
