REMARK  6 active torsions:
REMARK  status: ('A' for Active; 'I' for Inactive)
REMARK    1  A    between atoms: C16_16  and  C25_26 
REMARK    2  A    between atoms: C25_26  and  O2_27 
REMARK    3  A    between atoms: O2_27  and  C26_28 
REMARK    4  A    between atoms: C27_30  and  C31_37 
REMARK    5  A    between atoms: C38_47  and  C48_65 
REMARK    6  A    between atoms: C43_54  and  C47_61 
ROOT
HETATM    1  C1  UNL     1       0.521  -0.411  -3.467  1.00  0.00     0.030 C 
HETATM    2  C2  UNL     1       0.692  -1.938  -3.471  1.00  0.00     0.118 C 
HETATM    3  C3  UNL     1       2.019  -2.257  -2.707  1.00  0.00     0.028 C 
HETATM    4  C4  UNL     1       1.718  -1.761  -0.919  1.00  0.00     0.033 C 
HETATM    5  C5  UNL     1       1.871  -0.037  -1.174  1.00  0.00     0.003 C 
HETATM    6  C6  UNL     1       1.587   0.403  -2.680  1.00  0.00     0.003 C 
HETATM    7  C7  UNL     1       3.358   0.548  -0.602  1.00  0.00     0.005 C 
HETATM    8  C8  UNL     1       4.347  -0.072   0.637  1.00  0.00     0.004 C 
HETATM    9  C9  UNL     1       4.020  -1.592   1.378  1.00  0.00     0.005 C 
HETATM   10  C10 UNL     1       2.586  -2.655   0.788  1.00  0.00     0.059 A 
HETATM   11  C11 UNL     1       5.847   0.279   0.061  1.00  0.00     0.017 C 
HETATM   12  C12 UNL     1       5.966   1.822  -0.036  1.00  0.00    -0.049 C 
HETATM   13  C13 UNL     1       4.883   2.572  -0.337  1.00  0.00    -0.035 C 
HETATM   14  C14 UNL     1       3.464   2.085  -0.538  1.00  0.00     0.025 C 
HETATM   15  C15 UNL     1       7.369   2.431  -0.043  1.00  0.00     0.023 C 
HETATM   16  C16 UNL     1       8.236   1.937   1.139  1.00  0.00     0.059 C 
HETATM   17  C17 UNL     1       8.338   0.399   1.017  1.00  0.00     0.155 C 
HETATM   18  C18 UNL     1       6.991  -0.336   0.928  1.00  0.00     0.037 C 
HETATM   19  O1  UNL     1       9.141   0.021  -0.081  1.00  0.00    -0.223 OA
HETATM   20  C19 UNL     1       9.657   2.552   1.041  1.00  0.00     0.005 C 
HETATM   21  C20 UNL     1       9.677   4.077   0.894  1.00  0.00     0.000 C 
HETATM   22  C21 UNL     1       8.870   4.559  -0.326  1.00  0.00     0.000 C 
HETATM   23  C22 UNL     1       7.449   3.955  -0.293  1.00  0.00     0.004 C 
HETATM   24  C23 UNL     1       8.760   6.101  -0.266  1.00  0.00     0.000 C 
HETATM   25  C24 UNL     1       9.586   4.194  -1.645  1.00  0.00     0.000 C 
HETATM   26  C32 UNL     1       6.189  -0.064  -1.433  1.00  0.00     0.004 C 
HETATM   27  C33 UNL     1       4.362   0.803   1.984  1.00  0.00     0.000 C 
HETATM   28  C34 UNL     1       0.542   0.797  -0.728  1.00  0.00     0.000 C 
HETATM   29  C35 UNL     1       3.212  -1.593  -3.548  1.00  0.00     0.003 C 
HETATM   30  C36 UNL     1       2.378  -3.712  -3.322  1.00  0.00     0.003 C 
HETATM   31  O8  UNL     1      -0.482  -2.609  -3.019  1.00  0.00    -0.332 OA
HETATM   32  C37 UNL     1      -0.551  -4.029  -3.247  1.00  0.00     0.267 C 
HETATM   33  O9  UNL     1      -1.825  -4.104  -3.866  1.00  0.00    -0.318 OA
HETATM   34  C38 UNL     1      -2.080  -5.373  -4.428  1.00  0.00     0.237 C 
HETATM   35  C39 UNL     1      -2.102  -6.425  -3.332  1.00  0.00     0.223 C 
HETATM   36  C40 UNL     1      -0.810  -6.399  -2.538  1.00  0.00     0.217 C 
HETATM   37  C41 UNL     1      -0.540  -4.994  -2.020  1.00  0.00     0.207 C 
HETATM   38  O10 UNL     1       0.613  -5.096  -1.153  1.00  0.00    -0.324 OA
HETATM   39  C42 UNL     1       1.070  -3.863  -0.639  1.00  0.00     0.270 C 
HETATM   40  O11 UNL     1       2.545  -3.580  -0.917  1.00  0.00    -0.331 OA
HETATM   41  C43 UNL     1       3.310  -2.085  -0.512  1.00  0.00     0.133 A 
HETATM   42  C44 UNL     1       2.054  -1.073   0.782  1.00  0.00     0.182 A 
HETATM   43  C45 UNL     1       0.523  -1.815   1.077  1.00  0.00     0.217 C 
HETATM   44  C46 UNL     1       0.318  -3.332   0.629  1.00  0.00     0.241 C 
HETATM   45  O12 UNL     1      -1.079  -3.471   0.483  1.00  0.00    -0.215 OA
HETATM   46  O13 UNL     1       0.182  -1.744   2.453  1.00  0.00    -0.218 OA
HETATM   47  O14 UNL     1       1.963   0.315   1.110  1.00  0.00    -0.221 OA
HETATM   48  O16 UNL     1      -0.920  -7.282  -1.447  1.00  0.00    -0.218 OA
HETATM   49  O17 UNL     1      -2.265  -7.704  -3.895  1.00  0.00    -0.217 OA
ENDROOT
BRANCH  16  50
HETATM   50  C25 UNL     1       7.655   2.248   2.536  1.00  0.00     0.148 C 
BRANCH  50  51
HETATM   51  O2  UNL     1       7.117   3.537   2.602  1.00  0.00    -0.329 OA
BRANCH  51  52
HETATM   52  C26 UNL     1       6.480   3.837   3.824  1.00  0.00     0.270 C 
HETATM   53  O3  UNL     1       5.178   4.172   3.401  1.00  0.00    -0.326 OA
HETATM   54  C27 UNL     1       4.339   4.571   4.451  1.00  0.00     0.184 C 
HETATM   55  C28 UNL     1       4.934   5.775   5.175  1.00  0.00     0.215 C 
HETATM   56  C29 UNL     1       6.344   5.477   5.648  1.00  0.00     0.220 C 
HETATM   57  O6  UNL     1       4.164   6.112   6.303  1.00  0.00    -0.218 OA
HETATM   58  C30 UNL     1       7.162   5.020   4.462  1.00  0.00     0.241 C 
HETATM   59  O5  UNL     1       6.923   6.635   6.197  1.00  0.00    -0.218 OA
HETATM   60  O4  UNL     1       8.447   4.635   4.885  1.00  0.00    -0.215 OA
BRANCH  54  61
HETATM   61  C31 UNL     1       2.975   4.858   3.837  1.00  0.00     0.214 C 
HETATM   62  O7  UNL     1       2.012   5.118   4.838  1.00  0.00    -0.218 OA
ENDBRANCH  54  61
ENDBRANCH  51  52
ENDBRANCH  50  51
ENDBRANCH  16  50
BRANCH  41  63
HETATM   63  C47 UNL     1       4.743  -2.847  -0.439  1.00  0.00     0.210 C 
HETATM   64  O15 UNL     1       5.088  -3.434  -1.681  1.00  0.00    -0.218 OA
ENDBRANCH  41  63
BRANCH  34  65
HETATM   65  C48 UNL     1      -3.407  -5.338  -5.171  1.00  0.00     0.217 C 
HETATM   66  O18 UNL     1      -3.289  -5.792  -6.425  1.00  0.00    -0.646 OA
HETATM   67  O19 UNL     1      -4.460  -4.972  -4.709  1.00  0.00    -0.646 OA
ENDBRANCH  34  65
TORSDOF 6
