REMARK  3 active torsions:
REMARK  status: ('A' for Active; 'I' for Inactive)
REMARK    1  A    between atoms: C7_7  and  O1_8 
REMARK    2  A    between atoms: O1_8  and  C8_9 
REMARK    3  A    between atoms: C9_11  and  C13_18 
ROOT
HETATM    1  C1  UNL     1       0.727  -0.265  -1.018  1.00  0.00     0.052 C 
HETATM    2  C2  UNL     1      -0.612  -0.825  -0.579  1.00  0.00    -0.042 C 
HETATM    3  C3  UNL     1      -0.780  -2.138  -0.303  1.00  0.00     0.015 A 
HETATM    4  C4  UNL     1       0.318  -3.198  -0.304  1.00  0.00     0.071 A 
HETATM    5  C5  UNL     1       1.415  -2.801   0.683  1.00  0.00     0.135 C 
HETATM    6  C6  UNL     1       2.385  -1.761   0.127  1.00  0.00     0.066 C 
HETATM    7  C7  UNL     1       1.795  -0.349   0.079  1.00  0.00     0.125 C 
HETATM    8  C14 UNL     1       3.605  -1.992   1.031  1.00  0.00     0.091 C 
HETATM    9  C15 UNL     1       3.488  -3.479   1.322  1.00  0.00     0.272 C 
HETATM   10  O7  UNL     1       2.217  -3.878   1.061  1.00  0.00    -0.304 OA
HETATM   11  O8  UNL     1       4.376  -4.206   1.708  1.00  0.00    -0.264 OA
HETATM   12  C16 UNL     1       4.963  -1.647   0.404  1.00  0.00     0.011 C 
HETATM   13  C17 UNL     1      -0.462  -4.437   0.095  1.00  0.00    -0.035 A 
HETATM   14  C18 UNL     1      -1.762  -4.195   0.326  1.00  0.00     0.034 A 
HETATM   15  C19 UNL     1      -2.061  -2.766   0.110  1.00  0.00     0.191 A 
HETATM   16  O9  UNL     1      -3.178  -2.279   0.238  1.00  0.00    -0.287 OA
HETATM   17  C20 UNL     1       0.160  -5.803   0.173  1.00  0.00     0.027 C 
HETATM   18  C21 UNL     1      -1.690   0.232  -0.489  1.00  0.00     0.026 C 
ENDROOT
BRANCH   7  19
HETATM   19  O1  UNL     1       2.849   0.538  -0.166  1.00  0.00    -0.331 OA
BRANCH  19  20
HETATM   20  C8  UNL     1       2.555   1.902   0.064  1.00  0.00     0.270 C 
HETATM   21  O2  UNL     1       2.694   2.522  -1.198  1.00  0.00    -0.326 OA
HETATM   22  C9  UNL     1       2.501   3.913  -1.145  1.00  0.00     0.184 C 
HETATM   23  C10 UNL     1       3.518   4.546  -0.201  1.00  0.00     0.215 C 
HETATM   24  C11 UNL     1       3.393   3.933   1.177  1.00  0.00     0.220 C 
HETATM   25  O5  UNL     1       3.304   5.930  -0.072  1.00  0.00    -0.218 OA
HETATM   26  C12 UNL     1       3.580   2.441   1.036  1.00  0.00     0.241 C 
HETATM   27  O4  UNL     1       4.384   4.461   2.020  1.00  0.00    -0.218 OA
HETATM   28  O3  UNL     1       3.403   1.835   2.291  1.00  0.00    -0.215 OA
BRANCH  22  29
HETATM   29  C13 UNL     1       2.631   4.474  -2.555  1.00  0.00     0.214 C 
HETATM   30  O6  UNL     1       1.550   4.028  -3.349  1.00  0.00    -0.218 OA
ENDBRANCH  22  29
ENDBRANCH  19  20
ENDBRANCH   7  19
TORSDOF 3
