REMARK  3 active torsions:
REMARK  status: ('A' for Active; 'I' for Inactive)
REMARK    1  A    between atoms: C12_12  and  C14_16 
REMARK    2  A    between atoms: C15_17  and  C16_18 
REMARK    3  A    between atoms: C17_19  and  C18_20 
ROOT
HETATM    1  C1  UNL     1       6.287  -0.145   0.224  1.00  0.00     0.108 C 
HETATM    2  C2  UNL     1       5.168  -1.187   0.434  1.00  0.00     0.138 C 
HETATM    3  C3  UNL     1       5.125  -2.046   1.722  1.00  0.00     0.035 C 
HETATM    4  C4  UNL     1       6.103  -3.244   1.794  1.00  0.00     0.024 C 
HETATM    5  C5  UNL     1       7.442  -2.839   1.238  1.00  0.00    -0.048 C 
HETATM    6  C6  UNL     1       7.878  -1.600   1.528  1.00  0.00    -0.034 C 
HETATM    7  C7  UNL     1       7.758  -0.628   0.380  1.00  0.00     0.037 C 
HETATM    8  C8  UNL     1       8.013  -3.657   0.104  1.00  0.00     0.026 C 
HETATM    9  C9  UNL     1       3.976  -0.215   0.389  1.00  0.00     0.058 C 
HETATM   10  C10 UNL     1       4.410   0.879   1.390  1.00  0.00     0.006 C 
HETATM   11  C11 UNL     1       5.933   0.983   1.219  1.00  0.00     0.012 C 
HETATM   12  C12 UNL     1       3.724   0.370  -1.011  1.00  0.00     0.122 C 
HETATM   13  O1  UNL     1       4.916   0.761  -1.639  1.00  0.00    -0.302 OA
HETATM   14  C13 UNL     1       6.165   0.497  -1.170  1.00  0.00     0.274 C 
HETATM   15  O2  UNL     1       7.147   0.824  -1.805  1.00  0.00    -0.264 OA
HETATM   16  C20 UNL     1       3.017  -0.612  -1.968  1.00  0.00     0.035 C 
HETATM   17  O5  UNL     1       5.144  -2.067  -0.647  1.00  0.00    -0.225 OA
ENDROOT
BRANCH  12  18
HETATM   18  C14 UNL     1       2.802   1.585  -0.902  1.00  0.00     0.001 C 
HETATM   19  C15 UNL     1       1.480   1.537  -0.636  1.00  0.00    -0.002 C 
BRANCH  19  20
HETATM   20  C16 UNL     1       0.663   2.754  -0.583  1.00  0.00     0.002 C 
HETATM   21  C17 UNL     1      -0.693   2.800  -0.509  1.00  0.00     0.043 C 
HETATM   22  C19 UNL     1      -1.604   1.595  -0.504  1.00  0.00     0.037 C 
BRANCH  21  23
HETATM   23  C18 UNL     1      -1.363   4.125  -0.462  1.00  0.00     0.207 C 
HETATM   24  O3  UNL     1      -2.708   4.243  -0.453  1.00  0.00    -0.644 OA
HETATM   25  O4  UNL     1      -0.726   5.172  -0.415  1.00  0.00    -0.644 OA
ENDBRANCH  21  23
ENDBRANCH  19  20
ENDBRANCH  12  18
TORSDOF 3
