REMARK  0 active torsions:
REMARK  status: ('A' for Active; 'I' for Inactive)
ROOT
HETATM    1  C1  UNL     1       0.637   1.889  -1.059  1.00  0.00     0.055 C 
HETATM    2  C2  UNL     1      -0.672   1.300  -0.578  1.00  0.00    -0.042 C 
HETATM    3  C3  UNL     1      -0.808  -0.023  -0.332  1.00  0.00     0.015 A 
HETATM    4  C4  UNL     1       0.308  -1.061  -0.388  1.00  0.00     0.071 A 
HETATM    5  C5  UNL     1       1.434  -0.661   0.567  1.00  0.00     0.135 C 
HETATM    6  C6  UNL     1       2.379   0.385  -0.017  1.00  0.00     0.069 C 
HETATM    7  C7  UNL     1       1.774   1.785  -0.041  1.00  0.00     0.159 C 
HETATM    8  O1  UNL     1       2.772   2.710  -0.403  1.00  0.00    -0.223 OA
HETATM    9  C8  UNL     1       3.630   0.161   0.841  1.00  0.00     0.091 C 
HETATM   10  C9  UNL     1       3.533  -1.329   1.130  1.00  0.00     0.272 C 
HETATM   11  O2  UNL     1       2.255  -1.734   0.914  1.00  0.00    -0.304 OA
HETATM   12  O3  UNL     1       4.437  -2.054   1.478  1.00  0.00    -0.264 OA
HETATM   13  C10 UNL     1       4.959   0.522   0.167  1.00  0.00     0.011 C 
HETATM   14  C11 UNL     1      -0.437  -2.322   0.005  1.00  0.00    -0.035 A 
HETATM   15  C12 UNL     1      -1.738  -2.112   0.266  1.00  0.00     0.034 A 
HETATM   16  C13 UNL     1      -2.070  -0.685   0.088  1.00  0.00     0.191 A 
HETATM   17  O4  UNL     1      -3.195  -0.224   0.228  1.00  0.00    -0.287 OA
HETATM   18  C14 UNL     1       0.211  -3.677   0.037  1.00  0.00     0.027 C 
HETATM   19  C15 UNL     1      -1.777   2.325  -0.443  1.00  0.00     0.026 C 
ENDROOT
TORSDOF 0
