REMARK  4 active torsions:
REMARK  status: ('A' for Active; 'I' for Inactive)
REMARK    1  A    between atoms: C2_2  and  O5_28 
REMARK    2  A    between atoms: C15_16  and  C18_19 
REMARK    3  A    between atoms: O5_28  and  C24_29 
REMARK    4  A    between atoms: C27_33  and  O8_36 
ROOT
HETATM    1  C1  UNL     1       1.880   1.198  -2.249  1.00  0.00     0.030 C 
HETATM    2  C2  UNL     1       1.035   0.166  -1.511  1.00  0.00     0.118 C 
HETATM    3  C3  UNL     1       1.867  -1.111  -1.515  1.00  0.00     0.030 C 
HETATM    4  C4  UNL     1       3.292  -0.977  -0.930  1.00  0.00     0.005 C 
HETATM    5  C5  UNL     1       3.901   0.446  -0.708  1.00  0.00     0.003 C 
HETATM    6  C6  UNL     1       3.123   1.585  -1.438  1.00  0.00     0.003 C 
HETATM    7  C7  UNL     1       5.412   0.508  -1.137  1.00  0.00     0.030 C 
HETATM    8  C8  UNL     1       6.277  -0.731  -0.902  1.00  0.00     0.143 A 
HETATM    9  C9  UNL     1       5.665  -1.993  -1.194  1.00  0.00     0.142 A 
HETATM   10  C10 UNL     1       4.233  -1.934  -1.688  1.00  0.00     0.032 C 
HETATM   11  O1  UNL     1       5.769  -1.777   0.193  1.00  0.00    -0.354 OA
HETATM   12  C11 UNL     1       7.795  -0.654  -1.096  1.00  0.00     0.152 C 
HETATM   13  C12 UNL     1       8.435   0.632  -0.544  1.00  0.00     0.032 C 
HETATM   14  C13 UNL     1       7.602   1.849  -1.020  1.00  0.00     0.003 C 
HETATM   15  C14 UNL     1       6.131   1.766  -0.597  1.00  0.00     0.003 C 
HETATM   16  C15 UNL     1       9.825   0.695  -1.237  1.00  0.00     0.023 C 
HETATM   17  C16 UNL     1       9.664  -0.094  -2.555  1.00  0.00     0.007 C 
HETATM   18  C17 UNL     1       8.241  -0.674  -2.561  1.00  0.00     0.033 C 
HETATM   19  C22 UNL     1       8.488   0.608   0.997  1.00  0.00     0.003 C 
HETATM   20  O4  UNL     1       8.443  -1.750  -0.477  1.00  0.00    -0.224 OA
HETATM   21  C23 UNL     1       3.826   0.735   0.824  1.00  0.00     0.000 C 
ENDROOT
BRANCH   2  22
HETATM   22  O5  UNL     1       0.782   0.635  -0.221  1.00  0.00    -0.332 OA
BRANCH  22  23
HETATM   23  C24 UNL     1      -0.276   0.001   0.467  1.00  0.00     0.270 C 
HETATM   24  O6  UNL     1      -1.435   0.646  -0.009  1.00  0.00    -0.329 OA
HETATM   25  C25 UNL     1      -2.609   0.251   0.641  1.00  0.00     0.151 C 
HETATM   26  C26 UNL     1      -2.517   0.509   2.139  1.00  0.00     0.209 C 
HETATM   27  C30 UNL     1      -3.032  -1.168   0.254  1.00  0.00     0.035 C 
HETATM   28  C27 UNL     1      -1.267  -0.071   2.790  1.00  0.00     0.183 C 
HETATM   29  O9  UNL     1      -2.525   1.905   2.356  1.00  0.00    -0.218 OA
HETATM   30  C28 UNL     1      -0.060   0.286   1.937  1.00  0.00     0.238 C 
HETATM   31  O7  UNL     1       0.221   1.661   2.064  1.00  0.00    -0.215 OA
BRANCH  28  32
HETATM   32  O8  UNL     1      -1.406  -1.463   2.894  1.00  0.00    -0.349 OA
HETATM   33  C29 UNL     1      -0.636  -2.032   3.931  1.00  0.00     0.174 C 
ENDBRANCH  28  32
ENDBRANCH  22  23
ENDBRANCH   2  22
BRANCH  16  34
HETATM   34  C18 UNL     1      10.999   0.264  -0.391  1.00  0.00    -0.009 A 
HETATM   35  C19 UNL     1      11.728   1.236   0.515  1.00  0.00     0.175 A 
HETATM   36  O2  UNL     1      12.756   0.501   1.171  1.00  0.00    -0.294 OA
HETATM   37  C20 UNL     1      12.663  -0.771   0.691  1.00  0.00     0.296 A 
HETATM   38  C21 UNL     1      11.574  -0.946  -0.288  1.00  0.00     0.062 A 
HETATM   39  O3  UNL     1      13.406  -1.683   1.036  1.00  0.00    -0.259 OA
ENDBRANCH  16  34
TORSDOF 4
