REMARK  3 active torsions:
REMARK  status: ('A' for Active; 'I' for Inactive)
REMARK    1  A    between atoms: C3_3  and  O5_23 
REMARK    2  A    between atoms: C4_4  and  O4_21 
REMARK    3  A    between atoms: C11_11  and  O2_15 
ROOT
HETATM    1  C1  UNL     1      -0.765  -0.297   0.498  1.00  0.00     0.074 C 
HETATM    2  C2  UNL     1      -0.645  -1.397  -0.531  1.00  0.00     0.197 C 
HETATM    3  C3  UNL     1       0.394  -2.430  -0.256  1.00  0.00     0.149 C 
HETATM    4  C4  UNL     1       1.501  -2.058   0.433  1.00  0.00     0.128 C 
HETATM    5  C5  UNL     1       1.772  -0.592   0.795  1.00  0.00     0.269 C 
HETATM    6  C6  UNL     1       0.565   0.405   0.810  1.00  0.00     0.054 C 
HETATM    7  C7  UNL     1       0.927   1.580  -0.165  1.00  0.00     0.092 C 
HETATM    8  C8  UNL     1       2.463   1.557  -0.128  1.00  0.00     0.013 C 
HETATM    9  C9  UNL     1       2.764   0.056  -0.195  1.00  0.00     0.041 C 
HETATM   10  C10 UNL     1       0.350   1.453  -1.596  1.00  0.00     0.203 C 
HETATM   11  C11 UNL     1      -0.839   2.377  -1.635  1.00  0.00     0.105 C 
HETATM   12  C12 UNL     1      -0.805   3.231  -0.600  1.00  0.00     0.060 C 
HETATM   13  C13 UNL     1       0.351   2.931   0.270  1.00  0.00     0.177 C 
HETATM   14  O1  UNL     1       0.738   3.658   1.173  1.00  0.00    -0.291 OA
HETATM   15  O3  UNL     1       1.244   1.936  -2.581  1.00  0.00    -0.216 OA
HETATM   16  C15 UNL     1       0.504   0.866   2.293  1.00  0.00     0.041 C 
HETATM   17  C16 UNL     1       1.202  -0.261   3.051  1.00  0.00     0.291 C 
HETATM   18  N1  UNL     1       2.319  -0.529   2.158  1.00  0.00     0.341 N 
HETATM   19  O6  UNL     1      -1.476  -1.515  -1.423  1.00  0.00    -0.289 OA
ENDROOT
BRANCH  11  20
HETATM   20  O2  UNL     1      -1.708   2.319  -2.684  1.00  0.00    -0.330 OA
HETATM   21  C14 UNL     1      -2.745   3.272  -2.705  1.00  0.00     0.181 C 
ENDBRANCH  11  20
BRANCH   4  22
HETATM   22  O4  UNL     1       2.417  -3.006   0.821  1.00  0.00    -0.328 OA
HETATM   23  C17 UNL     1       3.786  -2.781   0.588  1.00  0.00     0.181 C 
ENDBRANCH   4  22
BRANCH   3  24
HETATM   24  O5  UNL     1      -0.011  -3.692  -0.623  1.00  0.00    -0.324 OA
HETATM   25  C18 UNL     1       0.512  -4.831   0.018  1.00  0.00     0.182 C 
ENDBRANCH   3  24
TORSDOF 3
