REMARK  3 active torsions:
REMARK  status: ('A' for Active; 'I' for Inactive)
REMARK    1  A    between atoms: C3_3  and  O5_24 
REMARK    2  A    between atoms: C4_4  and  O4_22 
REMARK    3  A    between atoms: C11_11  and  O2_15 
ROOT
HETATM    1  C1  UNL     1       1.350  -0.008  -1.561  1.00  0.00     0.074 C 
HETATM    2  C2  UNL     1       1.490  -1.511  -1.658  1.00  0.00     0.197 C 
HETATM    3  C3  UNL     1       2.679  -2.200  -1.091  1.00  0.00     0.148 C 
HETATM    4  C4  UNL     1       3.635  -1.483  -0.454  1.00  0.00     0.125 C 
HETATM    5  C5  UNL     1       3.713   0.034  -0.586  1.00  0.00     0.234 C 
HETATM    6  C6  UNL     1       2.332   0.730  -0.637  1.00  0.00     0.052 C 
HETATM    7  C7  UNL     1       1.870   0.896   0.835  1.00  0.00     0.092 A 
HETATM    8  C8  UNL     1       3.195   0.980   1.635  1.00  0.00     0.013 C 
HETATM    9  C9  UNL     1       4.347   0.713   0.650  1.00  0.00     0.038 C 
HETATM   10  C10 UNL     1       0.896   2.058   1.149  1.00  0.00     0.203 A 
HETATM   11  C11 UNL     1      -0.233   1.475   1.956  1.00  0.00     0.105 A 
HETATM   12  C12 UNL     1      -0.120   0.142   2.056  1.00  0.00     0.060 A 
HETATM   13  C13 UNL     1       1.104  -0.319   1.374  1.00  0.00     0.177 A 
HETATM   14  O1  UNL     1       1.454  -1.488   1.329  1.00  0.00    -0.291 OA
HETATM   15  O3  UNL     1       0.293   2.607  -0.006  1.00  0.00    -0.216 OA
HETATM   16  C15 UNL     1       2.716   2.079  -1.305  1.00  0.00     0.038 C 
HETATM   17  C16 UNL     1       3.991   1.787  -2.113  1.00  0.00     0.251 C 
HETATM   18  N1  UNL     1       4.303   0.391  -1.869  1.00  0.00     0.141 N 
HETATM   19  C17 UNL     1       5.715   0.094  -2.013  1.00  0.00     0.286 C 
HETATM   20  O6  UNL     1       0.615  -2.146  -2.236  1.00  0.00    -0.289 OA
ENDROOT
BRANCH  11  21
HETATM   21  O2  UNL     1      -1.220   2.301   2.409  1.00  0.00    -0.330 OA
HETATM   22  C14 UNL     1      -2.305   1.698   3.073  1.00  0.00     0.181 C 
ENDBRANCH  11  21
BRANCH   4  23
HETATM   23  O4  UNL     1       4.724  -2.124   0.079  1.00  0.00    -0.328 OA
HETATM   24  C18 UNL     1       4.554  -2.610   1.392  1.00  0.00     0.181 C 
ENDBRANCH   4  23
BRANCH   3  25
HETATM   25  O5  UNL     1       2.638  -3.569  -1.030  1.00  0.00    -0.324 OA
HETATM   26  C19 UNL     1       3.257  -4.201  -2.127  1.00  0.00     0.182 C 
ENDBRANCH   3  25
TORSDOF 3
