REMARK  5 active torsions:
REMARK  status: ('A' for Active; 'I' for Inactive)
REMARK    1  A    between atoms: C7_7  and  C14_15 
REMARK    2  A    between atoms: N1_9  and  C9_10 
REMARK    3  A    between atoms: C9_10  and  C10_11 
REMARK    4  A    between atoms: C14_15  and  C15_16 
REMARK    5  A    between atoms: C15_16  and  N2_17 
ROOT
HETATM    1  C1  UNL     1      -1.962   0.876   0.678  1.00  0.00     0.007 A 
HETATM    2  C2  UNL     1      -1.882  -0.524   0.924  1.00  0.00     0.036 A 
HETATM    3  C3  UNL     1      -0.686  -1.196   0.799  1.00  0.00     0.024 A 
HETATM    4  C4  UNL     1       0.450  -0.441   0.410  1.00  0.00     0.060 A 
HETATM    5  C5  UNL     1       0.398   0.943   0.167  1.00  0.00     0.013 A 
HETATM    6  C6  UNL     1      -0.852   1.606   0.308  1.00  0.00     0.002 A 
HETATM    7  C7  UNL     1       1.714   1.390  -0.197  1.00  0.00    -0.002 A 
HETATM    8  C8  UNL     1       2.535   0.284  -0.176  1.00  0.00     0.072 A 
HETATM    9  N1  UNL     1       1.759  -0.790   0.187  1.00  0.00    -0.322 N 
HETATM   10 BR1  UNL     1      -3.437  -1.473   1.429  1.00  0.00    -0.049 Br
ENDROOT
BRANCH   9  11
HETATM   11  C9  UNL     1       2.279  -2.156   0.328  1.00  0.00     0.132 C 
BRANCH  11  12
HETATM   12  C10 UNL     1       1.539  -3.106  -0.580  1.00  0.00    -0.010 C 
HETATM   13  C11 UNL     1       1.339  -4.418  -0.361  1.00  0.00    -0.046 C 
HETATM   14  C12 UNL     1       0.533  -5.258  -1.324  1.00  0.00     0.026 C 
HETATM   15  C13 UNL     1       1.877  -5.173   0.830  1.00  0.00     0.026 C 
ENDBRANCH  11  12
ENDBRANCH   9  11
BRANCH   7  16
HETATM   16  C14 UNL     1       2.238   2.761  -0.536  1.00  0.00     0.066 C 
BRANCH  16  17
HETATM   17  C15 UNL     1       1.354   3.969  -0.206  1.00  0.00     0.295 C 
BRANCH  17  18
HETATM   18  N2  UNL     1       2.108   5.211  -0.392  1.00  0.00     0.342 N 
HETATM   19  C16 UNL     1       1.332   6.410  -0.082  1.00  0.00     0.328 C 
ENDBRANCH  17  18
ENDBRANCH  16  17
ENDBRANCH   7  16
TORSDOF 5
