REMARK  5 active torsions:
REMARK  status: ('A' for Active; 'I' for Inactive)
REMARK    1  A    between atoms: C7_7  and  C14_15 
REMARK    2  A    between atoms: C8_8  and  C9_10 
REMARK    3  A    between atoms: C9_10  and  C10_11 
REMARK    4  A    between atoms: C14_15  and  C15_16 
REMARK    5  A    between atoms: C15_16  and  N2_17 
ROOT
HETATM    1  C1  UNL     1       3.283   2.204  -1.105  1.00  0.00     0.007 A 
HETATM    2  C2  UNL     1       4.249   1.159  -1.086  1.00  0.00     0.036 A 
HETATM    3  C3  UNL     1       3.894  -0.115  -0.705  1.00  0.00     0.026 A 
HETATM    4  C4  UNL     1       2.540  -0.330  -0.340  1.00  0.00     0.081 A 
HETATM    5  C5  UNL     1       1.566   0.675  -0.350  1.00  0.00     0.015 A 
HETATM    6  C6  UNL     1       1.969   1.980  -0.747  1.00  0.00     0.002 A 
HETATM    7  C7  UNL     1       0.326   0.083   0.068  1.00  0.00    -0.005 A 
HETATM    8  C8  UNL     1       0.573  -1.260   0.316  1.00  0.00     0.058 A 
HETATM    9  N1  UNL     1       1.921  -1.482   0.066  1.00  0.00    -0.250 NA
HETATM   10 BR1  UNL     1       6.034   1.524  -1.590  1.00  0.00    -0.049 Br
ENDROOT
BRANCH   8  11
HETATM   11  C9  UNL     1      -0.401  -2.336   0.765  1.00  0.00     0.054 C 
HETATM   12  C12 UNL     1      -0.863  -2.091   2.215  1.00  0.00     0.010 C 
HETATM   13  C13 UNL     1       0.291  -3.718   0.734  1.00  0.00     0.010 C 
BRANCH  11  14
HETATM   14  C10 UNL     1      -1.581  -2.397  -0.184  1.00  0.00    -0.021 C 
HETATM   15  C11 UNL     1      -1.462  -2.510  -1.515  1.00  0.00    -0.004 C 
ENDBRANCH  11  14
ENDBRANCH   8  11
BRANCH   7  16
HETATM   16  C14 UNL     1      -1.026   0.742   0.212  1.00  0.00     0.066 C 
BRANCH  16  17
HETATM   17  C15 UNL     1      -1.169   2.230  -0.131  1.00  0.00     0.295 C 
BRANCH  17  18
HETATM   18  N2  UNL     1      -2.553   2.662   0.082  1.00  0.00     0.342 N 
HETATM   19  C16 UNL     1      -2.757   4.089  -0.158  1.00  0.00     0.328 C 
ENDBRANCH  17  18
ENDBRANCH  16  17
ENDBRANCH   7  16
TORSDOF 5
