REMARK  6 active torsions:
REMARK  status: ('A' for Active; 'I' for Inactive)
REMARK    1  A    between atoms: C2_2  and  O6_31 
REMARK    2  A    between atoms: C7_7  and  O1_8 
REMARK    3  A    between atoms: C9_10  and  C17_20 
REMARK    4  A    between atoms: N1_16  and  C15_18 
REMARK    5  A    between atoms: C17_20  and  O3_21 
REMARK    6  A    between atoms: C22_27  and  O5_29 
ROOT
HETATM    1  C1  UNL     1       2.022  -0.460  -0.658  1.00  0.00     0.203 C 
HETATM    2  C2  UNL     1       3.008   0.720  -0.433  1.00  0.00     0.127 C 
HETATM    3  C3  UNL     1       2.741   1.377   0.942  1.00  0.00     0.058 C 
HETATM    4  C4  UNL     1       1.242   1.371   1.368  1.00  0.00     0.009 C 
HETATM    5  C5  UNL     1       0.321   0.233   0.903  1.00  0.00     0.060 C 
HETATM    6  C6  UNL     1       0.708  -1.214   1.272  1.00  0.00     0.041 C 
HETATM    7  C7  UNL     1       1.996  -1.546   0.474  1.00  0.00     0.148 C 
HETATM    8  C9  UNL     1      -0.655  -1.898   0.852  1.00  0.00     0.086 C 
HETATM    9  C10 UNL     1      -1.468  -1.880   2.178  1.00  0.00     0.009 C 
HETATM   10  C11 UNL     1      -1.427  -0.427   2.696  1.00  0.00     0.030 C 
HETATM   11  C12 UNL     1      -1.128   0.445   1.466  1.00  0.00     0.119 C 
HETATM   12  O2  UNL     1      -2.083   0.041   0.536  1.00  0.00    -0.331 OA
HETATM   13  C13 UNL     1      -1.488  -1.011  -0.183  1.00  0.00     0.339 C 
HETATM   14  N1  UNL     1      -0.736  -0.284  -1.229  1.00  0.00     0.163 N 
HETATM   15  C14 UNL     1       0.546   0.034  -0.628  1.00  0.00     0.257 C 
HETATM   16  C19 UNL     1       0.686   2.739   0.891  1.00  0.00     0.005 C 
HETATM   17  C20 UNL     1       1.838   3.394   0.113  1.00  0.00     0.058 C 
HETATM   18  C21 UNL     1       2.993   2.892   0.969  1.00  0.00     0.157 C 
HETATM   19  O4  UNL     1       4.235   3.328   0.493  1.00  0.00    -0.223 OA
HETATM   20  C22 UNL     1       1.856   2.872  -1.338  1.00  0.00     0.120 C 
HETATM   21  C23 UNL     1       2.896   1.768  -1.561  1.00  0.00     0.060 C 
HETATM   22  O7  UNL     1       2.369  -1.090  -1.875  1.00  0.00    -0.219 OA
ENDROOT
BRANCH   8  23
HETATM   23  C17 UNL     1      -0.527  -3.342   0.350  1.00  0.00     0.147 C 
BRANCH  23  24
HETATM   24  O3  UNL     1       0.247  -4.092   1.255  1.00  0.00    -0.351 OA
HETATM   25  C18 UNL     1       0.496  -5.402   0.794  1.00  0.00     0.174 C 
ENDBRANCH  23  24
ENDBRANCH   8  23
BRANCH   7  26
HETATM   26  O1  UNL     1       3.096  -1.569   1.342  1.00  0.00    -0.351 OA
HETATM   27  C8  UNL     1       4.063  -2.538   0.993  1.00  0.00     0.174 C 
ENDBRANCH   7  26
BRANCH  14  28
HETATM   28  C15 UNL     1      -0.792  -0.855  -2.571  1.00  0.00     0.253 C 
HETATM   29  C16 UNL     1      -0.209   0.106  -3.619  1.00  0.00     0.037 C 
ENDBRANCH  14  28
BRANCH   2  30
HETATM   30  O6  UNL     1       4.267   0.093  -0.532  1.00  0.00    -0.354 OA
HETATM   31  C25 UNL     1       5.432   0.779  -0.137  1.00  0.00     0.174 C 
ENDBRANCH   2  30
BRANCH  20  32
HETATM   32  O5  UNL     1       2.124   3.913  -2.244  1.00  0.00    -0.354 OA
HETATM   33  C24 UNL     1       0.989   4.698  -2.545  1.00  0.00     0.174 C 
ENDBRANCH  20  32
TORSDOF 6
