REMARK  4 active torsions:
REMARK  status: ('A' for Active; 'I' for Inactive)
REMARK    1  A    between atoms: C5_5  and  C7_7 
REMARK    2  A    between atoms: C7_7  and  C8_8 
REMARK    3  A    between atoms: C11_12  and  C12_13 
REMARK    4  A    between atoms: C12_13  and  C13_14 
ROOT
HETATM    1  C8  UNL     1       3.531   1.255   1.788  1.00  0.00     0.037 C 
HETATM    2  C9  UNL     1       4.498   1.765   2.858  1.00  0.00     0.143 C 
HETATM    3  O1  UNL     1       5.040   2.973   2.375  1.00  0.00    -0.354 OA
HETATM    4  C10 UNL     1       4.763   3.057   0.997  1.00  0.00     0.143 C 
HETATM    5  C11 UNL     1       4.338   1.658   0.544  1.00  0.00     0.037 C 
ENDROOT
BRANCH   1   6
HETATM    6  C7  UNL     1       3.182  -0.239   1.898  1.00  0.00     0.029 C 
BRANCH   6   7
HETATM    7  C5  UNL     1       1.727  -0.681   1.877  1.00  0.00    -0.020 A 
HETATM    8  C4  UNL     1       1.457  -2.053   2.049  1.00  0.00    -0.002 A 
HETATM    9  C3  UNL     1       0.161  -2.579   2.100  1.00  0.00     0.026 A 
HETATM   10  C2  UNL     1      -0.892  -1.679   1.980  1.00  0.00     0.119 A 
HETATM   11  C1  UNL     1      -0.653  -0.323   1.796  1.00  0.00     0.119 A 
HETATM   12  O4  UNL     1      -2.254  -1.902   2.014  1.00  0.00    -0.300 OA
HETATM   13  C6  UNL     1       0.638   0.194   1.727  1.00  0.00     0.022 A 
HETATM   14  O5  UNL     1      -1.863   0.339   1.711  1.00  0.00    -0.300 OA
HETATM   15  C20 UNL     1      -2.904  -0.632   1.875  1.00  0.00     0.304 A 
ENDBRANCH   6   7
ENDBRANCH   1   6
BRANCH   5  16
HETATM   16  C12 UNL     1       3.571   1.620  -0.788  1.00  0.00     0.029 C 
BRANCH  16  17
HETATM   17  C13 UNL     1       4.008   0.664  -1.887  1.00  0.00    -0.020 A 
HETATM   18  C14 UNL     1       3.316   0.716  -3.113  1.00  0.00    -0.002 A 
HETATM   19  C15 UNL     1       3.654  -0.073  -4.218  1.00  0.00     0.026 A 
HETATM   20  C16 UNL     1       4.734  -0.937  -4.073  1.00  0.00     0.119 A 
HETATM   21  C17 UNL     1       5.425  -1.017  -2.870  1.00  0.00     0.119 A 
HETATM   22  O3  UNL     1       5.300  -1.808  -4.983  1.00  0.00    -0.300 OA
HETATM   23  C18 UNL     1       5.075  -0.243  -1.767  1.00  0.00     0.022 A 
HETATM   24  O2  UNL     1       6.444  -1.942  -2.999  1.00  0.00    -0.300 OA
HETATM   25  C19 UNL     1       6.411  -2.445  -4.340  1.00  0.00     0.304 A 
ENDBRANCH  16  17
ENDBRANCH   5  16
TORSDOF 4
