REMARK  1 active torsions:
REMARK  status: ('A' for Active; 'I' for Inactive)
REMARK    1  A    between atoms: C18_19  and  O2_21 
ROOT
HETATM    1  C1  UNL     1      -2.534  -1.163   0.266  1.00  0.00     0.038 A 
HETATM    2  C2  UNL     1      -2.461  -2.639   0.227  1.00  0.00     0.195 A 
HETATM    3  C3  UNL     1      -1.157  -3.234   0.595  1.00  0.00     0.034 A 
HETATM    4  C4  UNL     1      -0.097  -2.493   0.971  1.00  0.00    -0.038 A 
HETATM    5  C5  UNL     1      -0.131  -0.972   1.073  1.00  0.00     0.034 A 
HETATM    6  C6  UNL     1      -1.478  -0.421   0.640  1.00  0.00    -0.020 A 
HETATM    7  C7  UNL     1       1.017  -0.410   0.161  1.00  0.00     0.007 C 
HETATM    8  C8  UNL     1       2.374  -1.040   0.599  1.00  0.00     0.002 C 
HETATM    9  C9  UNL     1       2.363  -2.574   0.501  1.00  0.00     0.004 C 
HETATM   10  C10 UNL     1       1.212  -3.162   1.326  1.00  0.00     0.022 C 
HETATM   11  C11 UNL     1       3.557  -0.410  -0.147  1.00  0.00     0.012 C 
HETATM   12  C12 UNL     1       3.704   1.113   0.092  1.00  0.00     0.024 C 
HETATM   13  C13 UNL     1       2.401   1.737  -0.442  1.00  0.00     0.004 C 
HETATM   14  C14 UNL     1       1.146   1.135   0.229  1.00  0.00     0.001 C 
HETATM   15  C15 UNL     1       5.022   1.341  -0.643  1.00  0.00     0.030 C 
HETATM   16  C16 UNL     1       5.844   0.107  -0.503  1.00  0.00     0.171 C 
HETATM   17  C17 UNL     1       4.961  -0.986   0.076  1.00  0.00     0.069 C 
HETATM   18  O1  UNL     1       7.033  -0.051  -0.741  1.00  0.00    -0.292 OA
HETATM   19  C18 UNL     1       5.480   2.422  -1.318  1.00  0.00     0.071 C 
HETATM   20  C19 UNL     1       4.706   3.720  -1.382  1.00  0.00     0.058 C 
HETATM   21  C21 UNL     1       3.950   1.525   1.560  1.00  0.00     0.004 C 
HETATM   22  C22 UNL     1       0.658  -0.765  -1.310  1.00  0.00     0.001 C 
HETATM   23  C23 UNL     1      -0.037  -0.599   2.572  1.00  0.00     0.008 C 
HETATM   24  O3  UNL     1      -3.421  -3.327  -0.104  1.00  0.00    -0.287 OA
ENDROOT
BRANCH  19  25
HETATM   25  O2  UNL     1       6.681   2.394  -1.982  1.00  0.00    -0.333 OA
HETATM   26  C20 UNL     1       6.659   2.830  -3.323  1.00  0.00     0.181 C 
ENDBRANCH  19  25
TORSDOF 1
