REMARK  11 active torsions:
REMARK  status: ('A' for Active; 'I' for Inactive)
REMARK    1  A    between atoms: C2_2  and  C3_3 
REMARK    2  A    between atoms: C3_3  and  N1_4 
REMARK       I    between atoms: N1_4  and  C4_5 
REMARK    3  A    between atoms: C4_5  and  C5_6 
REMARK    4  A    between atoms: C6_7  and  C7_8 
REMARK    5  A    between atoms: C8_9  and  C9_10 
REMARK    6  A    between atoms: C9_10  and  C10_11 
REMARK    7  A    between atoms: C10_11  and  C11_12 
REMARK    8  A    between atoms: C11_12  and  C12_13 
REMARK    9  A    between atoms: C12_13  and  C13_14 
REMARK   10  A    between atoms: C14_15  and  C15_16 
REMARK   11  A    between atoms: C15_16  and  C16_17 
ROOT
HETATM    1  C7  UNL     1       1.265   0.410   0.067  1.00  0.00    -0.004 C 
HETATM    2  C8  UNL     1       2.048  -0.558   0.586  1.00  0.00    -0.026 C 
ENDROOT
BRANCH   1   3
HETATM    3  C6  UNL     1       1.433   1.817   0.442  1.00  0.00     0.005 C 
HETATM    4  C5  UNL     1       0.621   2.794  -0.028  1.00  0.00     0.062 C 
BRANCH   4   5
HETATM    5  C4  UNL     1       0.778   4.202   0.394  1.00  0.00     0.275 C 
HETATM    6  N1  UNL     1      -0.238   5.004  -0.041  1.00  0.00    -0.230 NA
HETATM    7  O1  UNL     1       1.700   4.618   1.082  1.00  0.00    -0.266 OA
BRANCH   6   8
HETATM    8  C3  UNL     1      -0.324   6.419   0.317  1.00  0.00     0.151 C 
BRANCH   8   9
HETATM    9  C2  UNL     1      -1.656   6.962  -0.142  1.00  0.00    -0.020 C 
HETATM   10  C1  UNL     1      -2.887   6.282   0.406  1.00  0.00     0.028 C 
HETATM   11  C18 UNL     1      -1.741   8.006  -0.981  1.00  0.00    -0.007 C 
ENDBRANCH   8   9
ENDBRANCH   6   8
ENDBRANCH   4   5
ENDBRANCH   1   3
BRANCH   2  12
HETATM   12  C9  UNL     1       1.915  -2.026   0.262  1.00  0.00     0.026 C 
BRANCH  12  13
HETATM   13  C10 UNL     1       3.222  -2.577  -0.325  1.00  0.00     0.005 C 
BRANCH  13  14
HETATM   14  C11 UNL     1       3.127  -4.053  -0.603  1.00  0.00     0.005 C 
BRANCH  14  15
HETATM   15  C12 UNL     1       4.141  -5.045  -0.095  1.00  0.00     0.026 C 
BRANCH  15  16
HETATM   16  C13 UNL     1       5.598  -4.848  -0.382  1.00  0.00    -0.031 C 
HETATM   17  C14 UNL     1       6.540  -5.736   0.024  1.00  0.00    -0.031 C 
BRANCH  17  18
HETATM   18  C15 UNL     1       7.994  -5.524  -0.267  1.00  0.00     0.026 C 
BRANCH  18  19
HETATM   19  C16 UNL     1       9.022  -6.570   0.087  1.00  0.00     0.005 C 
HETATM   20  C17 UNL     1      10.501  -6.310   0.044  1.00  0.00     0.000 C 
ENDBRANCH  18  19
ENDBRANCH  17  18
ENDBRANCH  15  16
ENDBRANCH  14  15
ENDBRANCH  13  14
ENDBRANCH  12  13
ENDBRANCH   2  12
TORSDOF 11
