REMARK  6 active torsions:
REMARK  status: ('A' for Active; 'I' for Inactive)
REMARK    1  A    between atoms: C1_1  and  O9_41 
REMARK    2  A    between atoms: C7_8  and  C17_20 
REMARK    3  A    between atoms: C8_9  and  C10_12 
REMARK    4  A    between atoms: C13_15  and  O3_18 
REMARK    5  A    between atoms: C21_25  and  C22_26 
REMARK    6  A    between atoms: C30_36  and  O7_38 
ROOT
HETATM    1  C1  UNL     1      -1.123  -2.283   2.319  1.00  0.00     0.096 A 
HETATM    2  C2  UNL     1      -0.651  -3.433   1.674  1.00  0.00     0.024 A 
HETATM    3  C3  UNL     1       0.520  -3.430   0.917  1.00  0.00     0.007 A 
HETATM    4  C4  UNL     1       1.262  -2.252   0.797  1.00  0.00     0.058 A 
HETATM    5  C5  UNL     1       0.854  -1.071   1.439  1.00  0.00     0.099 A 
HETATM    6  C6  UNL     1      -0.327  -1.131   2.187  1.00  0.00     0.049 A 
HETATM    7  O1  UNL     1       1.520   0.119   1.312  1.00  0.00    -0.330 OA
HETATM    8  C7  UNL     1       2.365   0.240   0.205  1.00  0.00     0.161 C 
HETATM    9  C8  UNL     1       3.331  -0.955   0.168  1.00  0.00     0.114 C 
HETATM   10  C9  UNL     1       2.550  -2.255   0.065  1.00  0.00     0.181 C 
HETATM   11  O2  UNL     1       2.967  -3.219  -0.567  1.00  0.00    -0.291 OA
ENDROOT
BRANCH   8  12
HETATM   12  C17 UNL     1       1.577   0.466  -1.099  1.00  0.00     0.159 C 
HETATM   13  O4  UNL     1       2.511   0.492  -2.140  1.00  0.00    -0.334 OA
HETATM   14  C18 UNL     1       2.044   0.717  -3.404  1.00  0.00     0.082 A 
HETATM   15  C19 UNL     1       0.889   1.379  -3.686  1.00  0.00     0.066 A 
HETATM   16  C31 UNL     1       2.838   0.168  -4.551  1.00  0.00     0.102 A 
HETATM   17  C20 UNL     1       0.157   1.997  -2.512  1.00  0.00     0.118 C 
HETATM   18  C28 UNL     1       0.382   1.573  -5.068  1.00  0.00     0.136 A 
HETATM   19  C21 UNL     1       0.773   1.771  -1.137  1.00  0.00     0.101 C 
HETATM   20  O6  UNL     1      -0.924   2.736  -2.640  1.00  0.00    -0.194 OA
HETATM   21  C29 UNL     1       1.059   1.026  -6.110  1.00  0.00     0.048 A 
HETATM   22  O8  UNL     1      -0.778   2.236  -5.336  1.00  0.00    -0.190 OA
HETATM   23  C30 UNL     1       2.316   0.223  -5.966  1.00  0.00     0.080 A 
BRANCH  19  24
HETATM   24  C22 UNL     1      -0.301   1.869  -0.073  1.00  0.00    -0.014 A 
HETATM   25  C23 UNL     1      -0.205   2.802   0.965  1.00  0.00    -0.002 A 
HETATM   26  C24 UNL     1      -1.200   2.898   1.938  1.00  0.00     0.027 A 
HETATM   27  C25 UNL     1      -2.328   2.073   1.907  1.00  0.00     0.131 A 
HETATM   28  C26 UNL     1      -2.421   1.142   0.868  1.00  0.00     0.027 A 
HETATM   29  O5  UNL     1      -3.300   2.159   2.853  1.00  0.00    -0.190 OA
HETATM   30  C27 UNL     1      -1.424   1.036  -0.104  1.00  0.00    -0.002 A 
ENDBRANCH  19  24
BRANCH  23  31
HETATM   31  O7  UNL     1       3.182  -0.043  -6.995  1.00  0.00    -0.332 OA
HETATM   32  C32 UNL     1       3.000   0.659  -8.202  1.00  0.00     0.181 C 
ENDBRANCH  23  31
ENDBRANCH   8  12
BRANCH   9  33
HETATM   33  C10 UNL     1       4.282  -0.917   1.353  1.00  0.00    -0.013 A 
HETATM   34  C11 UNL     1       5.476  -0.195   1.267  1.00  0.00    -0.002 A 
HETATM   35  C12 UNL     1       6.354  -0.117   2.349  1.00  0.00     0.024 A 
HETATM   36  C13 UNL     1       6.102  -0.752   3.573  1.00  0.00     0.094 A 
HETATM   37  C14 UNL     1       4.885  -1.445   3.657  1.00  0.00     0.024 A 
HETATM   38  C15 UNL     1       4.006  -1.539   2.575  1.00  0.00    -0.002 A 
BRANCH  36  39
HETATM   39  O3  UNL     1       6.996  -0.592   4.601  1.00  0.00    -0.328 OA
HETATM   40  C16 UNL     1       6.591  -0.959   5.899  1.00  0.00     0.181 C 
ENDBRANCH  36  39
ENDBRANCH   9  33
BRANCH   1  41
HETATM   41  O9  UNL     1      -2.254  -2.376   3.091  1.00  0.00    -0.328 OA
HETATM   42  C33 UNL     1      -2.504  -1.358   4.032  1.00  0.00     0.181 C 
ENDBRANCH   1  41
TORSDOF 6
