REMARK  1 active torsions:
REMARK  status: ('A' for Active; 'I' for Inactive)
REMARK    1  A    between atoms: C11_12  and  C13_14 
ROOT
HETATM    1  C1  UNL     1      -2.276  -0.159   0.570  1.00  0.00     0.026 C 
HETATM    2  C2  UNL     1      -2.183  -1.377   1.449  1.00  0.00    -0.025 C 
HETATM    3  C3  UNL     1      -1.022  -2.043   1.530  1.00  0.00     0.038 C 
HETATM    4  C4  UNL     1       0.300  -1.701   0.898  1.00  0.00     0.052 C 
HETATM    5  C5  UNL     1       0.186  -0.395   0.086  1.00  0.00     0.009 C 
HETATM    6  C6  UNL     1      -1.211  -0.258  -0.547  1.00  0.00     0.005 C 
HETATM    7  C7  UNL     1       1.440  -0.060  -0.761  1.00  0.00     0.026 C 
HETATM    8  C8  UNL     1       2.701  -0.066   0.137  1.00  0.00     0.093 C 
HETATM    9  C9  UNL     1       2.755  -1.184   1.193  1.00  0.00     0.028 C 
HETATM   10  C10 UNL     1       1.431  -1.467   1.921  1.00  0.00     0.009 C 
HETATM   11  O1  UNL     1       2.650   1.144   0.830  1.00  0.00    -0.357 OA
HETATM   12  C11 UNL     1       2.173   2.147  -0.034  1.00  0.00     0.139 C 
HETATM   13  C12 UNL     1       1.451   1.431  -1.174  1.00  0.00     0.036 C 
HETATM   14  C17 UNL     1       4.023  -0.111  -0.653  1.00  0.00     0.030 C 
HETATM   15  C18 UNL     1       1.521  -0.946  -2.015  1.00  0.00     0.002 C 
HETATM   16  C19 UNL     1       0.493  -3.095   0.255  1.00  0.00     0.156 C 
HETATM   17  O3  UNL     1       0.044  -4.071   1.188  1.00  0.00    -0.298 OA
HETATM   18  C20 UNL     1      -0.889  -3.446   1.957  1.00  0.00     0.291 C 
HETATM   19  O4  UNL     1      -1.541  -3.996   2.837  1.00  0.00    -0.260 OA
ENDROOT
BRANCH  12  20
HETATM   20  C13 UNL     1       3.273   3.075  -0.480  1.00  0.00     0.031 A 
HETATM   21  C14 UNL     1       4.458   3.305   0.156  1.00  0.00     0.121 A 
HETATM   22  O2  UNL     1       5.234   4.176  -0.548  1.00  0.00    -0.303 OA
HETATM   23  C15 UNL     1       4.518   4.509  -1.659  1.00  0.00     0.122 A 
HETATM   24  C16 UNL     1       3.313   3.874  -1.669  1.00  0.00     0.027 A 
ENDBRANCH  12  20
TORSDOF 1
