REMARK  3 active torsions:
REMARK  status: ('A' for Active; 'I' for Inactive)
REMARK    1  A    between atoms: C3_3  and  C4_4 
REMARK    2  A    between atoms: C4_4  and  C5_5 
REMARK    3  A    between atoms: C6_6  and  O1_7 
ROOT
HETATM    1  C5  UNL     1       0.954  -0.943  -0.141  1.00  0.00     0.061 A 
HETATM    2  C6  UNL     1       0.048  -1.336  -1.151  1.00  0.00     0.099 A 
HETATM    3  C8  UNL     1      -1.089  -0.527  -1.317  1.00  0.00     0.049 A 
HETATM    4  C9  UNL     1      -1.357   0.639  -0.592  1.00  0.00     0.105 A 
HETATM    5  C10 UNL     1      -0.420   1.004   0.388  1.00  0.00     0.023 A 
HETATM    6  C11 UNL     1       0.710   0.212   0.614  1.00  0.00     0.007 A 
HETATM    7  C12 UNL     1      -0.653   2.212   1.177  1.00  0.00     0.007 A 
HETATM    8  C13 UNL     1      -1.771   2.931   0.945  1.00  0.00     0.069 A 
HETATM    9  C14 UNL     1      -2.715   2.472  -0.099  1.00  0.00     0.300 A 
HETATM   10  O2  UNL     1      -2.496   1.354  -0.848  1.00  0.00    -0.273 OA
HETATM   11  O3  UNL     1      -3.732   3.140  -0.280  1.00  0.00    -0.259 OA
ENDROOT
BRANCH   1  12
HETATM   12  C4  UNL     1       2.172  -1.766   0.143  1.00  0.00     0.197 C 
HETATM   13  O4  UNL     1       2.310  -2.917  -0.253  1.00  0.00    -0.286 OA
BRANCH  12  14
HETATM   14  C3  UNL     1       3.194  -1.247   1.115  1.00  0.00     0.034 C 
HETATM   15  C2  UNL     1       3.884  -0.101   0.992  1.00  0.00    -0.040 C 
HETATM   16  C1  UNL     1       4.872   0.325   2.054  1.00  0.00     0.026 C 
HETATM   17  C15 UNL     1       3.779   0.838  -0.186  1.00  0.00     0.026 C 
ENDBRANCH  12  14
ENDBRANCH   1  12
BRANCH   2  18
HETATM   18  O1  UNL     1       0.260  -2.497  -1.855  1.00  0.00    -0.328 OA
HETATM   19  C7  UNL     1      -0.794  -3.033  -2.621  1.00  0.00     0.181 C 
ENDBRANCH   2  18
TORSDOF 3
