REMARK  0 active torsions:
REMARK  status: ('A' for Active; 'I' for Inactive)
ROOT
HETATM    1  C1  UNL     1       1.770   1.982   0.225  1.00  0.00     0.002 A 
HETATM    2  C2  UNL     1       1.672   0.542   0.279  1.00  0.00     0.110 A 
HETATM    3  C3  UNL     1       2.788  -0.251   0.139  1.00  0.00     0.145 C 
HETATM    4  N1  UNL     1       4.012   0.339   0.113  1.00  0.00    -0.281 N 
HETATM    5  C4  UNL     1       4.168   1.749   0.526  1.00  0.00     0.115 C 
HETATM    6  C5  UNL     1       3.064   2.685   0.019  1.00  0.00     0.053 C 
HETATM    7  C6  UNL     1       5.165  -0.357  -0.173  1.00  0.00     0.263 C 
HETATM    8  C7  UNL     1       5.062  -1.798  -0.492  1.00  0.00     0.072 A 
HETATM    9  C8  UNL     1       3.836  -2.462  -0.302  1.00  0.00     0.066 A 
HETATM   10  N2  UNL     1       2.762  -1.652   0.109  1.00  0.00    -0.311 N 
HETATM   11  C9  UNL     1       1.539  -2.341   0.579  1.00  0.00     0.132 C 
HETATM   12  C10 UNL     1       3.779  -3.845  -0.561  1.00  0.00     0.017 A 
HETATM   13  C11 UNL     1       4.907  -4.538  -1.001  1.00  0.00     0.002 A 
HETATM   14  C12 UNL     1       6.116  -3.865  -1.198  1.00  0.00     0.000 A 
HETATM   15  C13 UNL     1       6.196  -2.498  -0.938  1.00  0.00     0.006 A 
HETATM   16  O1  UNL     1       6.267   0.178  -0.171  1.00  0.00    -0.267 OA
HETATM   17  N3  UNL     1       0.298   0.219   0.372  1.00  0.00    -0.243 NA
HETATM   18  C14 UNL     1      -0.379   1.345   0.391  1.00  0.00     0.081 A 
HETATM   19  C15 UNL     1       0.498   2.481   0.302  1.00  0.00     0.015 A 
HETATM   20  C16 UNL     1      -0.026   3.824   0.262  1.00  0.00     0.001 A 
HETATM   21  C17 UNL     1      -1.379   3.974   0.322  1.00  0.00     0.000 A 
HETATM   22  C18 UNL     1      -2.272   2.835   0.422  1.00  0.00     0.002 A 
HETATM   23  C19 UNL     1      -1.807   1.554   0.456  1.00  0.00     0.019 A 
ENDROOT
TORSDOF 0
