REMARK  7 active torsions:
REMARK  status: ('A' for Active; 'I' for Inactive)
REMARK    1  A    between atoms: C3_3  and  C25_33 
REMARK    2  A    between atoms: C9_10  and  O7_31 
REMARK    3  A    between atoms: C11_12  and  O2_13 
REMARK    4  A    between atoms: C17_21  and  O6_29 
REMARK    5  A    between atoms: C19_23  and  O4_24 
REMARK    6  A    between atoms: O4_24  and  C20_25 
REMARK    7  A    between atoms: C25_33  and  O8_34 
ROOT
HETATM    1  C1  UNL     1      -1.884   1.728   0.760  1.00  0.00     0.033 C 
HETATM    2  C2  UNL     1      -2.465   0.329   0.957  1.00  0.00     0.007 C 
HETATM    3  C3  UNL     1      -1.395  -0.794   1.009  1.00  0.00     0.061 C 
HETATM    4  C4  UNL     1       0.047  -0.213   1.054  1.00  0.00     0.038 C 
HETATM    5  C5  UNL     1       0.268   0.720  -0.167  1.00  0.00     0.063 C 
HETATM    6  C6  UNL     1      -0.877   1.735  -0.379  1.00  0.00     0.154 C 
HETATM    7  O1  UNL     1      -1.538   1.571  -1.611  1.00  0.00    -0.223 OA
HETATM    8  C7  UNL     1       1.580   1.544  -0.083  1.00  0.00     0.009 C 
HETATM    9  C8  UNL     1       2.926   0.831   0.204  1.00  0.00     0.056 C 
HETATM   10  C9  UNL     1       2.983  -0.457  -0.651  1.00  0.00     0.127 C 
HETATM   11  C10 UNL     1       1.593  -1.171  -0.548  1.00  0.00     0.203 C 
HETATM   12  C11 UNL     1       1.068  -1.360   0.891  1.00  0.00     0.148 C 
HETATM   13  C13 UNL     1       0.424  -0.398  -1.212  1.00  0.00     0.254 C 
HETATM   14  N1  UNL     1      -0.863  -1.069  -1.435  1.00  0.00     0.140 N 
HETATM   15  C14 UNL     1      -0.846  -1.998  -2.557  1.00  0.00     0.285 C 
HETATM   16  C15 UNL     1      -1.488  -1.676  -0.269  1.00  0.00     0.253 C 
HETATM   17  O3  UNL     1       1.744  -2.428  -1.151  1.00  0.00    -0.219 OA
HETATM   18  C16 UNL     1       3.377  -0.196  -2.127  1.00  0.00     0.060 C 
HETATM   19  C17 UNL     1       3.857   1.211  -2.521  1.00  0.00     0.120 C 
HETATM   20  C18 UNL     1       3.422   2.312  -1.546  1.00  0.00     0.055 C 
HETATM   21  C19 UNL     1       3.865   2.004  -0.125  1.00  0.00     0.129 C 
HETATM   22  C22 UNL     1       1.895   2.389  -1.349  1.00  0.00     0.005 C 
ENDROOT
BRANCH  21  23
HETATM   23  O4  UNL     1       5.230   1.768  -0.023  1.00  0.00    -0.304 OA
BRANCH  23  24
HETATM   24  C20 UNL     1       5.806   1.933   1.199  1.00  0.00     0.272 C 
HETATM   25  C21 UNL     1       7.297   1.667   1.129  1.00  0.00     0.106 C 
HETATM   26  O5  UNL     1       5.220   2.237   2.213  1.00  0.00    -0.264 OA
ENDBRANCH  23  24
ENDBRANCH  21  23
BRANCH  10  27
HETATM   27  O7  UNL     1       3.826  -1.470  -0.154  1.00  0.00    -0.354 OA
HETATM   28  C24 UNL     1       5.159  -1.161   0.157  1.00  0.00     0.174 C 
ENDBRANCH  10  27
BRANCH  19  29
HETATM   29  O6  UNL     1       5.257   1.251  -2.635  1.00  0.00    -0.354 OA
HETATM   30  C23 UNL     1       5.743   0.807  -3.885  1.00  0.00     0.174 C 
ENDBRANCH  19  29
BRANCH  12  31
HETATM   31  O2  UNL     1       2.005  -1.346   1.932  1.00  0.00    -0.351 OA
HETATM   32  C12 UNL     1       2.408  -2.631   2.358  1.00  0.00     0.174 C 
ENDBRANCH  12  31
BRANCH   3  33
HETATM   33  C25 UNL     1      -1.694  -1.677   2.244  1.00  0.00     0.144 C 
BRANCH  33  34
HETATM   34  O8  UNL     1      -1.412  -0.965   3.425  1.00  0.00    -0.351 OA
HETATM   35  C26 UNL     1      -1.584  -1.752   4.583  1.00  0.00     0.174 C 
ENDBRANCH  33  34
ENDBRANCH   3  33
TORSDOF 7
