REMARK  2 active torsions:
REMARK  status: ('A' for Active; 'I' for Inactive)
REMARK    1  A    between atoms: C13_17  and  C19_24 
REMARK    2  A    between atoms: C19_24  and  C20_25 
ROOT
HETATM    1  C1  UNL     1       0.015  -0.112   0.344  1.00  0.00     0.151 C 
HETATM    2  C2  UNL     1      -0.041  -1.616   0.316  1.00  0.00     0.041 C 
HETATM    3  C3  UNL     1       1.158  -2.473   0.387  1.00  0.00     0.198 C 
HETATM    4  C4  UNL     1       2.372  -1.744   0.829  1.00  0.00     0.086 A 
HETATM    5  C5  UNL     1       2.361  -0.340   0.764  1.00  0.00     0.101 A 
HETATM    6  O1  UNL     1       1.308   0.416   0.333  1.00  0.00    -0.328 OA
HETATM    7  C6  UNL     1       3.503   0.324   1.224  1.00  0.00     0.052 A 
HETATM    8  C7  UNL     1       4.634  -0.341   1.705  1.00  0.00     0.135 A 
HETATM    9  C8  UNL     1       4.596  -1.735   1.737  1.00  0.00     0.055 A 
HETATM   10  C9  UNL     1       3.483  -2.461   1.307  1.00  0.00     0.138 A 
HETATM   11  O2  UNL     1       3.504  -3.818   1.395  1.00  0.00    -0.190 OA
HETATM   12  O3  UNL     1       5.719   0.352   2.138  1.00  0.00    -0.190 OA
HETATM   13  O4  UNL     1       1.112  -3.676   0.144  1.00  0.00    -0.287 OA
HETATM   14  C10 UNL     1      -1.274  -2.153   0.295  1.00  0.00    -0.018 C 
HETATM   15  C11 UNL     1      -2.386  -1.145   0.408  1.00  0.00     0.082 C 
HETATM   16  C12 UNL     1      -2.198  -0.213  -0.780  1.00  0.00     0.181 C 
HETATM   17  C13 UNL     1      -0.818   0.479  -0.807  1.00  0.00     0.174 C 
HETATM   18  O5  UNL     1      -0.971   1.833  -0.478  1.00  0.00    -0.354 OA
HETATM   19  C14 UNL     1      -1.135   1.930   0.905  1.00  0.00     0.096 C 
HETATM   20  C15 UNL     1      -0.827   0.522   1.472  1.00  0.00     0.058 C 
HETATM   21  C16 UNL     1      -2.069  -0.374   1.704  1.00  0.00     0.017 C 
HETATM   22  C17 UNL     1      -0.140   2.978   1.435  1.00  0.00     0.030 C 
HETATM   23  C18 UNL     1      -2.540   2.484   1.185  1.00  0.00     0.030 C 
HETATM   24  O6  UNL     1      -3.043  -0.072  -1.636  1.00  0.00    -0.293 OA
ENDROOT
BRANCH  17  25
HETATM   25  C19 UNL     1      -0.240   0.336  -2.222  1.00  0.00     0.062 C 
BRANCH  25  26
HETATM   26  C20 UNL     1       1.105   0.995  -2.412  1.00  0.00    -0.032 C 
HETATM   27  C21 UNL     1       2.272   0.417  -2.751  1.00  0.00    -0.048 C 
HETATM   28  C22 UNL     1       3.540   1.237  -2.856  1.00  0.00     0.026 C 
HETATM   29  C23 UNL     1       2.470  -1.050  -3.044  1.00  0.00     0.026 C 
ENDBRANCH  25  26
ENDBRANCH  17  25
TORSDOF 2
