REMARK  1 active torsions:
REMARK  status: ('A' for Active; 'I' for Inactive)
REMARK    1  A    between atoms: C21_21  and  C24_24 
ROOT
HETATM    1  C1  UNL     1      -1.520  -0.637  -2.810  1.00  0.00     0.065 C 
HETATM    2  C2  UNL     1      -1.777  -2.128  -2.803  1.00  0.00     0.150 C 
HETATM    3  C3  UNL     1      -1.192  -2.936  -1.641  1.00  0.00     0.051 C 
HETATM    4  C4  UNL     1      -1.379  -2.198  -0.274  1.00  0.00     0.006 C 
HETATM    5  C5  UNL     1      -1.353  -0.640  -0.224  1.00  0.00     0.001 C 
HETATM    6  C6  UNL     1      -2.042  -0.067  -1.494  1.00  0.00     0.008 C 
HETATM    7  C7  UNL     1       0.116  -0.113  -0.085  1.00  0.00     0.005 C 
HETATM    8  C8  UNL     1       1.078  -0.741   0.967  1.00  0.00     0.004 C 
HETATM    9  C9  UNL     1       0.882  -2.275   1.002  1.00  0.00     0.000 C 
HETATM   10  C10 UNL     1      -0.566  -2.773   0.905  1.00  0.00     0.000 C 
HETATM   11  C11 UNL     1       2.585  -0.361   0.607  1.00  0.00     0.015 C 
HETATM   12  C12 UNL     1       2.722   1.159   0.509  1.00  0.00    -0.049 C 
HETATM   13  C13 UNL     1       1.654   1.916   0.201  1.00  0.00    -0.035 C 
HETATM   14  C14 UNL     1       0.255   1.419  -0.043  1.00  0.00     0.025 C 
HETATM   15  C15 UNL     1       4.083   1.842   0.651  1.00  0.00     0.021 C 
HETATM   16  C16 UNL     1       4.952   1.246   1.787  1.00  0.00     0.032 C 
HETATM   17  C17 UNL     1       4.957  -0.293   1.671  1.00  0.00     0.003 C 
HETATM   18  C18 UNL     1       3.556  -0.915   1.680  1.00  0.00     0.004 C 
HETATM   19  C19 UNL     1       6.397   1.809   1.764  1.00  0.00     0.153 C 
HETATM   20  C20 UNL     1       6.529   3.105   0.970  1.00  0.00     0.044 C 
HETATM   21  C21 UNL     1       6.075   2.968  -0.496  1.00  0.00     0.090 C 
HETATM   22  C22 UNL     1       4.881   1.998  -0.661  1.00  0.00     0.014 C 
HETATM   23  C23 UNL     1       4.024   2.442  -1.861  1.00  0.00     0.001 C 
HETATM   24  O3  UNL     1       7.348   0.887   1.280  1.00  0.00    -0.223 OA
HETATM   25  C25 UNL     1       4.316   1.668   3.137  1.00  0.00     0.003 C 
HETATM   26  C26 UNL     1       3.060  -0.924  -0.762  1.00  0.00     0.004 C 
HETATM   27  C27 UNL     1       0.735  -0.200   2.383  1.00  0.00     0.000 C 
HETATM   28  C28 UNL     1      -2.300  -0.163   0.919  1.00  0.00     0.000 C 
HETATM   29  C29 UNL     1      -1.931  -4.300  -1.611  1.00  0.00     0.007 C 
HETATM   30  C30 UNL     1       0.258  -3.240  -2.064  1.00  0.00     0.007 C 
HETATM   31  O4  UNL     1      -2.378  -2.643  -3.720  1.00  0.00    -0.296 OA
ENDROOT
BRANCH  21  32
HETATM   32  C24 UNL     1       7.224   2.517  -1.389  1.00  0.00     0.185 C 
HETATM   33  O1  UNL     1       7.471   3.369  -2.399  1.00  0.00    -0.647 OA
HETATM   34  O2  UNL     1       7.854   1.496  -1.252  1.00  0.00    -0.647 OA
ENDBRANCH  21  32
TORSDOF 1
