REMARK  5 active torsions:
REMARK  status: ('A' for Active; 'I' for Inactive)
REMARK    1  A    between atoms: C1_1  and  O3_12 
REMARK    2  A    between atoms: C4_4  and  C7_8 
REMARK    3  A    between atoms: C8_9  and  C9_10 
REMARK    4  A    between atoms: O3_12  and  C10_13 
REMARK    5  A    between atoms: C11_15  and  C15_22 
ROOT
HETATM    1  O3  UNL     1       4.194   0.034  -0.129  1.00  0.00    -0.301 OA
ENDROOT
BRANCH   1   2
HETATM    2  C1  UNL     1       3.282  -0.898   0.280  1.00  0.00     0.122 A 
HETATM    3  C2  UNL     1       3.469  -1.609   1.472  1.00  0.00     0.026 A 
HETATM    4  C3  UNL     1       2.599  -2.627   1.859  1.00  0.00     0.002 A 
HETATM    5  C4  UNL     1       1.524  -3.001   1.039  1.00  0.00     0.002 A 
HETATM    6  C5  UNL     1       1.383  -2.327  -0.182  1.00  0.00     0.029 A 
HETATM    7  C6  UNL     1       2.252  -1.305  -0.580  1.00  0.00     0.153 A 
HETATM    8  O1  UNL     1       2.107  -0.695  -1.788  1.00  0.00    -0.188 OA
BRANCH   5   9
HETATM    9  C7  UNL     1       0.667  -4.122   1.462  1.00  0.00    -0.002 C 
HETATM   10  C8  UNL     1      -0.437  -4.560   0.825  1.00  0.00     0.009 C 
BRANCH  10  11
HETATM   11  C9  UNL     1      -1.256  -5.735   1.293  1.00  0.00     0.209 C 
HETATM   12  O2  UNL     1      -2.585  -5.333   1.597  1.00  0.00    -0.215 OA
ENDBRANCH  10  11
ENDBRANCH   5   9
ENDBRANCH   1   2
BRANCH   1  13
HETATM   13  C10 UNL     1       3.731   1.367  -0.107  1.00  0.00     0.274 C 
HETATM   14  O4  UNL     1       3.858   1.785  -1.447  1.00  0.00    -0.326 OA
HETATM   15  C11 UNL     1       3.451   3.113  -1.635  1.00  0.00     0.184 C 
HETATM   16  C12 UNL     1       4.312   4.039  -0.783  1.00  0.00     0.215 C 
HETATM   17  C13 UNL     1       4.232   3.639   0.678  1.00  0.00     0.220 C 
HETATM   18  O7  UNL     1       3.877   5.372  -0.891  1.00  0.00    -0.218 OA
HETATM   19  C14 UNL     1       4.622   2.183   0.795  1.00  0.00     0.241 C 
HETATM   20  O6  UNL     1       5.115   4.432   1.429  1.00  0.00    -0.218 OA
HETATM   21  O5  UNL     1       4.443   1.743   2.118  1.00  0.00    -0.215 OA
BRANCH  15  22
HETATM   22  C15 UNL     1       3.564   3.431  -3.119  1.00  0.00     0.214 C 
HETATM   23  O8  UNL     1       2.729   2.555  -3.850  1.00  0.00    -0.218 OA
ENDBRANCH  15  22
ENDBRANCH   1  13
TORSDOF 5
