REMARK  5 active torsions:
REMARK  status: ('A' for Active; 'I' for Inactive)
REMARK    1  A    between atoms: C1_1  and  O6_20 
REMARK    2  A    between atoms: C3_3  and  C13_17 
REMARK    3  A    between atoms: C7_7  and  C10_10 
REMARK    4  A    between atoms: O6_20  and  C15_21 
REMARK    5  A    between atoms: C19_25  and  C20_27 
ROOT
HETATM    1  C1  UNL     1       1.727  -0.435   0.298  1.00  0.00     0.146 C 
HETATM    2  C2  UNL     1       2.517  -1.458  -0.529  1.00  0.00     0.154 C 
HETATM    3  C3  UNL     1       3.289  -2.457   0.324  1.00  0.00     0.070 C 
HETATM    4  C4  UNL     1       4.389  -1.482   0.745  1.00  0.00     0.091 C 
HETATM    5  C5  UNL     1       3.874  -0.470   1.784  1.00  0.00     0.012 C 
HETATM    6  C6  UNL     1       2.571   0.303   1.385  1.00  0.00     0.038 C 
HETATM    7  C7  UNL     1       3.138   1.689   0.956  1.00  0.00     0.090 C 
HETATM    8  C8  UNL     1       4.319   1.948   1.905  1.00  0.00     0.011 C 
HETATM    9  C9  UNL     1       4.955   0.575   2.130  1.00  0.00     0.001 C 
HETATM   10  C11 UNL     1       1.742   0.429   2.693  1.00  0.00     0.003 C 
HETATM   11  C12 UNL     1       4.666  -0.812  -0.590  1.00  0.00     0.272 C 
HETATM   12  O3  UNL     1       3.496  -0.790  -1.274  1.00  0.00    -0.302 OA
HETATM   13  O4  UNL     1       5.715  -0.346  -0.977  1.00  0.00    -0.264 OA
ENDROOT
BRANCH   1  14
HETATM   14  O6  UNL     1       1.143   0.435  -0.640  1.00  0.00    -0.329 OA
BRANCH  14  15
HETATM   15  C15 UNL     1      -0.129   0.942  -0.312  1.00  0.00     0.270 C 
HETATM   16  C16 UNL     1      -0.358   2.260  -1.026  1.00  0.00     0.241 C 
HETATM   17  C17 UNL     1      -1.007   2.173  -2.392  1.00  0.00     0.220 C 
HETATM   18  O11 UNL     1      -1.077   3.122  -0.173  1.00  0.00    -0.215 OA
HETATM   19  C18 UNL     1      -2.050   1.078  -2.451  1.00  0.00     0.215 C 
HETATM   20  O10 UNL     1      -0.010   1.928  -3.356  1.00  0.00    -0.218 OA
HETATM   21  C19 UNL     1      -1.578  -0.224  -1.825  1.00  0.00     0.184 C 
HETATM   22  O9  UNL     1      -3.213   1.517  -1.787  1.00  0.00    -0.218 OA
HETATM   23  O7  UNL     1      -1.110  -0.049  -0.519  1.00  0.00    -0.326 OA
BRANCH  21  24
HETATM   24  C20 UNL     1      -0.618  -1.052  -2.667  1.00  0.00     0.214 C 
HETATM   25  O8  UNL     1      -1.267  -1.470  -3.852  1.00  0.00    -0.218 OA
ENDBRANCH  21  24
ENDBRANCH  14  15
ENDBRANCH   1  14
BRANCH   3  26
HETATM   26  C13 UNL     1       2.540  -3.214   1.417  1.00  0.00     0.155 C 
HETATM   27  O5  UNL     1       3.479  -3.952   2.163  1.00  0.00    -0.223 OA
HETATM   28  C14 UNL     1       1.497  -4.174   0.852  1.00  0.00     0.036 C 
ENDBRANCH   3  26
BRANCH   7  29
HETATM   29  C10 UNL     1       2.243   2.920   0.919  1.00  0.00     0.185 C 
HETATM   30  O1  UNL     1       2.815   3.907   0.202  1.00  0.00    -0.647 OA
HETATM   31  O2  UNL     1       1.155   3.087   1.414  1.00  0.00    -0.647 OA
ENDBRANCH   7  29
TORSDOF 5
