REMARK  3 active torsions:
REMARK  status: ('A' for Active; 'I' for Inactive)
REMARK    1  A    between atoms: C3_3  and  C13_20 
REMARK    2  A    between atoms: C5_5  and  C9_9 
REMARK    3  A    between atoms: C7_7  and  C8_8 
ROOT
HETATM    1  C1  UNL     1      -2.257   0.358   0.421  1.00  0.00     0.157 C 
HETATM    2  C2  UNL     1      -2.375  -1.097  -0.043  1.00  0.00     0.152 C 
HETATM    3  C3  UNL     1      -1.060  -1.868   0.042  1.00  0.00     0.042 C 
HETATM    4  C4  UNL     1      -0.402  -1.174  -1.157  1.00  0.00     0.119 C 
HETATM    5  C5  UNL     1      -0.058   0.320  -0.944  1.00  0.00     0.168 C 
HETATM    6  C6  UNL     1      -0.980   1.119   0.025  1.00  0.00     0.094 C 
HETATM    7  C7  UNL     1      -1.502   2.312  -0.804  1.00  0.00     0.235 C 
HETATM    8  O2  UNL     1      -1.284   3.586  -0.216  1.00  0.00    -0.213 OA
HETATM    9  C10 UNL     1      -3.003   2.130  -0.821  1.00  0.00     0.302 C 
HETATM   10  O3  UNL     1      -3.362   1.084  -0.042  1.00  0.00    -0.300 OA
HETATM   11  O4  UNL     1      -3.750   2.915  -1.361  1.00  0.00    -0.261 OA
HETATM   12  C11 UNL     1      -0.253   1.695   1.268  1.00  0.00     0.008 C 
HETATM   13  O5  UNL     1       1.261   0.326  -0.430  1.00  0.00    -0.223 OA
HETATM   14  C12 UNL     1      -1.562  -1.361  -2.122  1.00  0.00     0.274 C 
HETATM   15  O6  UNL     1      -2.697  -1.147  -1.409  1.00  0.00    -0.302 OA
HETATM   16  O7  UNL     1      -1.496  -1.614  -3.305  1.00  0.00    -0.264 OA
ENDROOT
BRANCH   3  17
HETATM   17  C13 UNL     1      -0.306  -1.978   1.372  1.00  0.00     0.003 C 
HETATM   18  C14 UNL     1      -1.209  -2.529   2.488  1.00  0.00     0.000 C 
HETATM   19  C15 UNL     1       0.945  -2.863   1.226  1.00  0.00     0.000 C 
ENDBRANCH   3  17
BRANCH   5  20
HETATM   20  C9  UNL     1      -0.014   1.123  -2.251  1.00  0.00     0.174 A 
HETATM   21  C8  UNL     1      -0.798   2.274  -2.147  1.00  0.00     0.182 A 
HETATM   22  O1  UNL     1      -1.376   1.119  -2.966  1.00  0.00    -0.348 OA
ENDBRANCH   5  20
TORSDOF 3
