REMARK  9 active torsions:
REMARK  status: ('A' for Active; 'I' for Inactive)
REMARK    1  A    between atoms: C4_4  and  C24_36 
REMARK    2  A    between atoms: C5_5  and  C17_23 
REMARK    3  A    between atoms: C9_9  and  C10_10 
REMARK    4  A    between atoms: C10_10  and  O1_11 
REMARK    5  A    between atoms: O1_11  and  C11_12 
REMARK    6  A    between atoms: C15_16  and  C16_18 
REMARK    7  A    between atoms: C17_23  and  O7_24 
REMARK    8  A    between atoms: O7_24  and  C18_25 
REMARK    9  A    between atoms: C19_27  and  C23_34 
ROOT
HETATM    1  C1  UNL     1       3.075  -0.596  -2.416  1.00  0.00     0.002 C 
HETATM    2  C2  UNL     1       2.307   0.740  -2.417  1.00  0.00     0.000 C 
HETATM    3  C3  UNL     1       2.817   1.772  -1.405  1.00  0.00     0.000 C 
HETATM    4  C4  UNL     1       4.323   2.056  -1.582  1.00  0.00     0.002 C 
HETATM    5  C5  UNL     1       5.096   0.731  -1.360  1.00  0.00     0.030 C 
HETATM    6  C6  UNL     1       4.606  -0.391  -2.318  1.00  0.00     0.003 C 
HETATM    7  C7  UNL     1       5.130  -1.794  -1.957  1.00  0.00     0.000 C 
HETATM    8  C8  UNL     1       4.018  -2.449  -1.115  1.00  0.00     0.003 C 
HETATM    9  C9  UNL     1       2.808  -1.495  -1.191  1.00  0.00     0.030 C 
HETATM   10  C27 UNL     1       2.699  -1.350  -3.713  1.00  0.00     0.000 C 
ENDROOT
BRANCH   5  11
HETATM   11  C17 UNL     1       5.200   0.395   0.142  1.00  0.00     0.145 C 
BRANCH  11  12
HETATM   12  O7  UNL     1       6.166   1.224   0.749  1.00  0.00    -0.329 OA
BRANCH  12  13
HETATM   13  C18 UNL     1       6.504   0.834   2.062  1.00  0.00     0.270 C 
HETATM   14  O8  UNL     1       7.274  -0.348   2.026  1.00  0.00    -0.326 OA
HETATM   15  C19 UNL     1       8.589  -0.233   1.554  1.00  0.00     0.184 C 
HETATM   16  C20 UNL     1       9.367   0.855   2.278  1.00  0.00     0.215 C 
HETATM   17  C21 UNL     1       8.627   2.179   2.341  1.00  0.00     0.220 C 
HETATM   18  O11 UNL     1       9.615   0.429   3.602  1.00  0.00    -0.218 OA
HETATM   19  C22 UNL     1       7.204   1.948   2.812  1.00  0.00     0.241 C 
HETATM   20  O10 UNL     1       8.622   2.806   1.082  1.00  0.00    -0.218 OA
HETATM   21  O9  UNL     1       7.239   1.601   4.179  1.00  0.00    -0.215 OA
BRANCH  15  22
HETATM   22  C23 UNL     1       8.671  -0.181   0.033  1.00  0.00     0.214 C 
HETATM   23  O12 UNL     1       9.967  -0.556  -0.392  1.00  0.00    -0.218 OA
ENDBRANCH  15  22
ENDBRANCH  12  13
ENDBRANCH  11  12
ENDBRANCH   5  11
BRANCH   4  24
HETATM   24  C24 UNL     1       4.678   2.780  -2.910  1.00  0.00     0.000 C 
HETATM   25  C25 UNL     1       3.767   3.991  -3.198  1.00  0.00     0.000 C 
HETATM   26  C26 UNL     1       6.139   3.274  -2.932  1.00  0.00     0.000 C 
ENDBRANCH   4  24
BRANCH   9  27
HETATM   27  C10 UNL     1       1.462  -2.215  -1.125  1.00  0.00     0.145 C 
BRANCH  27  28
HETATM   28  O1  UNL     1       1.222  -2.530   0.225  1.00  0.00    -0.329 OA
BRANCH  28  29
HETATM   29  C11 UNL     1      -0.043  -3.090   0.486  1.00  0.00     0.270 C 
HETATM   30  C12 UNL     1      -0.070  -3.667   1.886  1.00  0.00     0.241 C 
HETATM   31  C13 UNL     1      -0.160  -2.608   2.969  1.00  0.00     0.220 C 
HETATM   32  O6  UNL     1      -1.156  -4.558   2.003  1.00  0.00    -0.215 OA
HETATM   33  C14 UNL     1      -1.204  -1.559   2.636  1.00  0.00     0.215 C 
HETATM   34  O5  UNL     1       1.096  -1.991   3.130  1.00  0.00    -0.218 OA
HETATM   35  C15 UNL     1      -1.144  -1.078   1.194  1.00  0.00     0.184 C 
HETATM   36  O4  UNL     1      -2.487  -2.084   2.892  1.00  0.00    -0.218 OA
HETATM   37  O2  UNL     1      -1.048  -2.125   0.266  1.00  0.00    -0.326 OA
BRANCH  35  38
HETATM   38  C16 UNL     1      -0.133   0.035   0.938  1.00  0.00     0.214 C 
HETATM   39  O3  UNL     1      -0.558   1.221   1.579  1.00  0.00    -0.218 OA
ENDBRANCH  35  38
ENDBRANCH  28  29
ENDBRANCH  27  28
ENDBRANCH   9  27
TORSDOF 9
