REMARK  5 active torsions:
REMARK  status: ('A' for Active; 'I' for Inactive)
REMARK    1  A    between atoms: C3_3  and  C19_27 
REMARK    2  A    between atoms: C7_7  and  C10_10 
REMARK    3  A    between atoms: C10_10  and  O1_11 
REMARK    4  A    between atoms: O1_11  and  C11_12 
REMARK    5  A    between atoms: C15_16  and  C16_18 
ROOT
HETATM    1  C1  UNL     1       0.494  -2.006   0.363  1.00  0.00     0.180 C 
HETATM    2  C2  UNL     1       1.612  -2.835  -0.275  1.00  0.00     0.157 C 
HETATM    3  C3  UNL     1       2.690  -3.325   0.688  1.00  0.00     0.068 C 
HETATM    4  C4  UNL     1       3.278  -1.943   0.980  1.00  0.00     0.091 C 
HETATM    5  C5  UNL     1       2.365  -1.055   1.846  1.00  0.00     0.012 C 
HETATM    6  C6  UNL     1       0.938  -0.828   1.267  1.00  0.00     0.033 C 
HETATM    7  C7  UNL     1       1.049   0.553   0.557  1.00  0.00     0.032 C 
HETATM    8  C8  UNL     1       2.066   1.357   1.387  1.00  0.00     0.003 C 
HETATM    9  C9  UNL     1       2.996   0.336   2.050  1.00  0.00     0.001 C 
HETATM   10  C17 UNL     1      -0.071  -0.685   2.434  1.00  0.00     0.003 C 
HETATM   11  C18 UNL     1       3.348  -1.418  -0.449  1.00  0.00     0.272 C 
HETATM   12  O7  UNL     1       2.320  -1.983  -1.139  1.00  0.00    -0.302 OA
HETATM   13  O8  UNL     1       4.154  -0.636  -0.900  1.00  0.00    -0.264 OA
HETATM   14  O10 UNL     1      -0.339  -1.560  -0.680  1.00  0.00    -0.221 OA
ENDROOT
BRANCH   7  15
HETATM   15  C10 UNL     1      -0.245   1.354   0.367  1.00  0.00     0.145 C 
BRANCH  15  16
HETATM   16  O1  UNL     1       0.010   2.440  -0.492  1.00  0.00    -0.329 OA
BRANCH  16  17
HETATM   17  C11 UNL     1      -1.126   3.221  -0.787  1.00  0.00     0.270 C 
HETATM   18  C12 UNL     1      -0.717   4.543  -1.400  1.00  0.00     0.241 C 
HETATM   19  C13 UNL     1      -0.317   4.430  -2.858  1.00  0.00     0.220 C 
HETATM   20  O6  UNL     1      -1.777   5.465  -1.271  1.00  0.00    -0.215 OA
HETATM   21  C14 UNL     1      -1.305   3.585  -3.639  1.00  0.00     0.215 C 
HETATM   22  O5  UNL     1       0.963   3.850  -2.949  1.00  0.00    -0.218 OA
HETATM   23  C15 UNL     1      -1.686   2.292  -2.932  1.00  0.00     0.184 C 
HETATM   24  O4  UNL     1      -2.470   4.341  -3.882  1.00  0.00    -0.218 OA
HETATM   25  O2  UNL     1      -2.028   2.487  -1.585  1.00  0.00    -0.326 OA
BRANCH  23  26
HETATM   26  C16 UNL     1      -0.708   1.142  -3.151  1.00  0.00     0.214 C 
HETATM   27  O3  UNL     1      -1.250  -0.057  -2.629  1.00  0.00    -0.218 OA
ENDBRANCH  23  26
ENDBRANCH  16  17
ENDBRANCH  15  16
ENDBRANCH   7  15
BRANCH   3  28
HETATM   28  C19 UNL     1       2.457  -4.378   1.785  1.00  0.00     0.130 C 
HETATM   29  O9  UNL     1       2.395  -5.628   1.137  1.00  0.00    -0.226 OA
HETATM   30  C20 UNL     1       3.668  -4.427   2.725  1.00  0.00     0.033 C 
HETATM   31  C21 UNL     1       1.180  -4.297   2.618  1.00  0.00     0.033 C 
ENDBRANCH   3  28
TORSDOF 5
