REMARK  6 active torsions:
REMARK  status: ('A' for Active; 'I' for Inactive)
REMARK    1  A    between atoms: C4_4  and  C18_26 
REMARK    2  A    between atoms: C5_5  and  C11_13 
REMARK    3  A    between atoms: C9_9  and  C10_10 
REMARK    4  A    between atoms: C11_13  and  O3_14 
REMARK    5  A    between atoms: O3_14  and  C12_15 
REMARK    6  A    between atoms: C13_17  and  C17_24 
ROOT
HETATM    1  C1  UNL     1      -0.645  -1.052  -1.596  1.00  0.00     0.029 C 
HETATM    2  C2  UNL     1      -1.356   0.318  -1.544  1.00  0.00     0.003 C 
HETATM    3  C3  UNL     1      -0.713   1.377  -0.641  1.00  0.00     0.000 C 
HETATM    4  C4  UNL     1       0.795   1.551  -0.910  1.00  0.00     0.002 C 
HETATM    5  C5  UNL     1       1.491   0.194  -0.634  1.00  0.00     0.030 C 
HETATM    6  C6  UNL     1       0.896  -0.931  -1.520  1.00  0.00     0.005 C 
HETATM    7  C7  UNL     1       1.358  -2.353  -1.160  1.00  0.00     0.003 C 
HETATM    8  C8  UNL     1       0.218  -2.973  -0.336  1.00  0.00     0.033 C 
HETATM    9  C9  UNL     1      -1.000  -2.042  -0.463  1.00  0.00     0.157 C 
HETATM   10  O2  UNL     1      -1.149  -1.357   0.751  1.00  0.00    -0.223 OA
HETATM   11  C21 UNL     1      -1.027  -1.692  -2.960  1.00  0.00     0.003 C 
ENDROOT
BRANCH   5  12
HETATM   12  C11 UNL     1       1.622  -0.081   0.875  1.00  0.00     0.145 C 
BRANCH  12  13
HETATM   13  O3  UNL     1       2.678   0.682   1.411  1.00  0.00    -0.329 OA
BRANCH  13  14
HETATM   14  C12 UNL     1       3.025   0.309   2.726  1.00  0.00     0.270 C 
HETATM   15  O4  UNL     1       3.787  -0.880   2.676  1.00  0.00    -0.326 OA
HETATM   16  C13 UNL     1       5.082  -0.785   2.144  1.00  0.00     0.184 C 
HETATM   17  C14 UNL     1       5.885   0.353   2.758  1.00  0.00     0.215 C 
HETATM   18  C15 UNL     1       5.123   1.664   2.810  1.00  0.00     0.220 C 
HETATM   19  O7  UNL     1       6.245  -0.004   4.076  1.00  0.00    -0.218 OA
HETATM   20  C16 UNL     1       3.757   1.433   3.423  1.00  0.00     0.241 C 
HETATM   21  O6  UNL     1       4.968   2.212   1.520  1.00  0.00    -0.218 OA
HETATM   22  O5  UNL     1       3.908   1.098   4.784  1.00  0.00    -0.215 OA
BRANCH  16  23
HETATM   23  C17 UNL     1       5.101  -0.835   0.620  1.00  0.00     0.214 C 
HETATM   24  O8  UNL     1       6.395  -1.186   0.167  1.00  0.00    -0.218 OA
ENDBRANCH  16  23
ENDBRANCH  13  14
ENDBRANCH  12  13
ENDBRANCH   5  12
BRANCH   4  25
HETATM   25  C18 UNL     1       1.119   2.158  -2.304  1.00  0.00     0.000 C 
HETATM   26  C19 UNL     1       0.304   3.431  -2.609  1.00  0.00     0.000 C 
HETATM   27  C20 UNL     1       2.615   2.507  -2.455  1.00  0.00     0.000 C 
ENDBRANCH   4  25
BRANCH   9  28
HETATM   28  C10 UNL     1      -2.303  -2.812  -0.622  1.00  0.00     0.212 C 
HETATM   29  O1  UNL     1      -2.549  -3.506   0.585  1.00  0.00    -0.218 OA
ENDBRANCH   9  28
TORSDOF 6
