REMARK  3 active torsions:
REMARK  status: ('A' for Active; 'I' for Inactive)
REMARK    1  A    between atoms: C15_16  and  C18_20 
REMARK    2  A    between atoms: C20_23  and  O5_27 
REMARK    3  A    between atoms: O5_27  and  C23_28 
ROOT
HETATM    1  C1  UNL     1      -1.685  -1.531  -2.649  1.00  0.00     0.181 C 
HETATM    2  C2  UNL     1      -2.229  -2.595  -1.713  1.00  0.00     0.212 C 
HETATM    3  C3  UNL     1      -1.194  -3.717  -1.578  1.00  0.00     0.050 C 
HETATM    4  C4  UNL     1       0.189  -3.142  -1.268  1.00  0.00    -0.046 C 
HETATM    5  C5  UNL     1       0.570  -1.679  -1.492  1.00  0.00     0.032 C 
HETATM    6  C6  UNL     1      -0.556  -0.757  -2.005  1.00  0.00     0.072 C 
HETATM    7  C7  UNL     1       1.357  -1.188  -0.229  1.00  0.00     0.056 C 
HETATM    8  C8  UNL     1       2.624  -2.080  -0.018  1.00  0.00     0.011 C 
HETATM    9  C9  UNL     1       2.593  -3.439  -0.747  1.00  0.00     0.026 C 
HETATM   10  C10 UNL     1       1.194  -3.958  -0.909  1.00  0.00    -0.035 C 
HETATM   11  C11 UNL     1       3.960  -1.329  -0.243  1.00  0.00     0.004 C 
HETATM   12  C12 UNL     1       4.062  -0.107   0.716  1.00  0.00     0.012 C 
HETATM   13  C13 UNL     1       3.037   0.912   0.190  1.00  0.00     0.065 C 
HETATM   14  C14 UNL     1       1.694   0.321  -0.246  1.00  0.00     0.150 C 
HETATM   15  O1  UNL     1       0.853   1.129  -0.573  1.00  0.00    -0.296 OA
HETATM   16  C15 UNL     1       5.572   0.290   0.628  1.00  0.00     0.063 C 
HETATM   17  C16 UNL     1       6.298  -1.051   0.391  1.00  0.00     0.155 C 
HETATM   18  C17 UNL     1       5.222  -2.117   0.158  1.00  0.00     0.033 C 
HETATM   19  O2  UNL     1       7.126  -0.975  -0.749  1.00  0.00    -0.223 OA
HETATM   20  C28 UNL     1       3.718  -0.406   2.193  1.00  0.00     0.001 C 
HETATM   21  C29 UNL     1       4.098  -0.955  -1.746  1.00  0.00     0.000 C 
HETATM   22  C30 UNL     1       0.377  -1.351   0.971  1.00  0.00     0.008 C 
HETATM   23  C31 UNL     1      -1.658  -4.658  -0.442  1.00  0.00     0.007 C 
HETATM   24  C32 UNL     1      -1.093  -4.521  -2.893  1.00  0.00     0.007 C 
HETATM   25  O6  UNL     1      -3.492  -3.082  -2.132  1.00  0.00    -0.215 OA
HETATM   26  O7  UNL     1      -2.103  -1.303  -3.761  1.00  0.00    -0.293 OA
ENDROOT
BRANCH  16  27
HETATM   27  C18 UNL     1       6.193   1.287   1.655  1.00  0.00     0.146 C 
HETATM   28  O3  UNL     1       5.261   2.343   1.714  1.00  0.00    -0.354 OA
HETATM   29  C19 UNL     1       5.667   3.621   2.101  1.00  0.00     0.118 C 
HETATM   30  C20 UNL     1       6.879   4.089   1.285  1.00  0.00     0.147 C 
HETATM   31  C25 UNL     1       4.456   4.532   1.804  1.00  0.00     0.032 C 
HETATM   32  C26 UNL     1       5.891   3.721   3.618  1.00  0.00     0.032 C 
HETATM   33  C21 UNL     1       8.041   3.118   1.470  1.00  0.00     0.099 C 
HETATM   34  C22 UNL     1       7.574   1.717   1.133  1.00  0.00     0.177 C 
HETATM   35  O4  UNL     1       8.312   0.961   0.544  1.00  0.00    -0.293 OA
HETATM   36  C27 UNL     1       6.450   0.693   3.052  1.00  0.00     0.037 C 
BRANCH  30  37
HETATM   37  O5  UNL     1       6.528   4.136  -0.075  1.00  0.00    -0.354 OA
BRANCH  37  38
HETATM   38  C23 UNL     1       7.306   5.021  -0.842  1.00  0.00     0.142 C 
HETATM   39  C24 UNL     1       6.915   4.861  -2.308  1.00  0.00     0.035 C 
ENDBRANCH  37  38
ENDBRANCH  30  37
ENDBRANCH  16  27
TORSDOF 3
