REMARK  4 active torsions:
REMARK  status: ('A' for Active; 'I' for Inactive)
REMARK    1  A    between atoms: C2_2  and  O4_19 
REMARK    2  A    between atoms: C4_4  and  C7_8 
REMARK    3  A    between atoms: C7_8  and  C8_9 
REMARK    4  A    between atoms: C8_9  and  C9_10 
ROOT
HETATM    1  C7  UNL     1       2.055  -0.292   0.025  1.00  0.00     0.031 C 
ENDROOT
BRANCH   1   2
HETATM    2  C4  UNL     1       3.145  -1.347   0.028  1.00  0.00    -0.018 A 
HETATM    3  C3  UNL     1       2.772  -2.695   0.111  1.00  0.00     0.020 A 
HETATM    4  C2  UNL     1       3.698  -3.748   0.123  1.00  0.00     0.096 A 
HETATM    5  C1  UNL     1       5.048  -3.380   0.046  1.00  0.00     0.051 A 
HETATM    6  C6  UNL     1       5.479  -2.054  -0.040  1.00  0.00     0.133 A 
HETATM    7  C5  UNL     1       4.509  -1.048  -0.046  1.00  0.00     0.023 A 
HETATM    8  O1  UNL     1       6.804  -1.761  -0.111  1.00  0.00    -0.190 OA
BRANCH   4   9
HETATM    9  O4  UNL     1       3.383  -5.082   0.205  1.00  0.00    -0.328 OA
HETATM   10  C16 UNL     1       2.025  -5.447   0.289  1.00  0.00     0.181 C 
ENDBRANCH   4   9
ENDBRANCH   1   2
BRANCH   1  11
HETATM   11  C8  UNL     1       2.495   1.177  -0.065  1.00  0.00     0.031 C 
BRANCH  11  12
HETATM   12  C9  UNL     1       1.388   2.215  -0.087  1.00  0.00    -0.020 A 
HETATM   13  C10 UNL     1       1.744   3.568  -0.230  1.00  0.00    -0.002 A 
HETATM   14  C11 UNL     1       0.799   4.601  -0.275  1.00  0.00     0.026 A 
HETATM   15  C12 UNL     1      -0.539   4.239  -0.168  1.00  0.00     0.119 A 
HETATM   16  C13 UNL     1      -0.912   2.909  -0.013  1.00  0.00     0.119 A 
HETATM   17  O3  UNL     1      -1.671   5.031  -0.183  1.00  0.00    -0.300 OA
HETATM   18  C14 UNL     1       0.028   1.883   0.027  1.00  0.00     0.022 A 
HETATM   19  O2  UNL     1      -2.290   2.836   0.076  1.00  0.00    -0.300 OA
HETATM   20  C15 UNL     1      -2.805   4.169  -0.035  1.00  0.00     0.304 A 
ENDBRANCH  11  12
ENDBRANCH   1  11
TORSDOF 4
