REMARK  3 active torsions:
REMARK  status: ('A' for Active; 'I' for Inactive)
REMARK    1  A    between atoms: C6_7  and  C12_14 
REMARK    2  A    between atoms: C8_9  and  C10_11 
REMARK    3  A    between atoms: C12_14  and  C13_15 
ROOT
HETATM    1  C1  UNL     1       1.125   2.705   0.599  1.00  0.00     0.117 C 
HETATM    2  C2  UNL     1       2.413   3.295   1.128  1.00  0.00     0.001 C 
HETATM    3  C3  UNL     1       3.534   2.558   1.203  1.00  0.00    -0.000 C 
HETATM    4  C4  UNL     1       3.487   1.190   0.685  1.00  0.00     0.022 A 
HETATM    5  C5  UNL     1       2.391   0.838  -0.118  1.00  0.00     0.090 A 
HETATM    6  O1  UNL     1       1.360   1.708  -0.360  1.00  0.00    -0.332 OA
HETATM    7  C6  UNL     1       2.326  -0.486  -0.591  1.00  0.00     0.005 A 
HETATM    8  C7  UNL     1       3.366  -1.382  -0.333  1.00  0.00     0.001 A 
HETATM    9  C8  UNL     1       4.496  -0.997   0.406  1.00  0.00     0.035 A 
HETATM   10  C9  UNL     1       4.545   0.300   0.922  1.00  0.00     0.005 A 
HETATM   11  C17 UNL     1       0.289   3.796  -0.079  1.00  0.00     0.035 C 
HETATM   12  C18 UNL     1       0.333   2.092   1.760  1.00  0.00     0.035 C 
ENDROOT
BRANCH   7  13
HETATM   13  C12 UNL     1       1.113  -0.948  -1.371  1.00  0.00     0.054 C 
BRANCH  13  14
HETATM   14  C13 UNL     1      -0.032  -1.264  -0.442  1.00  0.00    -0.030 C 
HETATM   15  C14 UNL     1      -1.265  -1.639  -0.827  1.00  0.00    -0.048 C 
HETATM   16  C15 UNL     1      -2.346  -1.943   0.184  1.00  0.00     0.026 C 
HETATM   17  C16 UNL     1      -1.683  -1.796  -2.269  1.00  0.00     0.026 C 
ENDBRANCH  13  14
ENDBRANCH   7  13
BRANCH   9  18
HETATM   18  C10 UNL     1       5.628  -1.932   0.654  1.00  0.00     0.173 C 
HETATM   19  C11 UNL     1       5.687  -3.244  -0.109  1.00  0.00     0.077 C 
HETATM   20  O2  UNL     1       6.530  -1.649   1.434  1.00  0.00    -0.291 OA
ENDBRANCH   9  18
TORSDOF 3
