REMARK  8 active torsions:
REMARK  status: ('A' for Active; 'I' for Inactive)
REMARK    1  A    between atoms: C1_1  and  O5_22 
REMARK    2  A    between atoms: C2_2  and  O4_20 
REMARK    3  A    between atoms: C8_9  and  C10_12 
REMARK    4  A    between atoms: C13_15  and  O3_18 
REMARK    5  A    between atoms: O5_22  and  C18_23 
REMARK    6  A    between atoms: C19_25  and  C23_32 
REMARK    7  A    between atoms: C23_32  and  O10_33 
REMARK    8  A    between atoms: O10_33  and  C24_34 
ROOT
HETATM    1  O5  UNL     1       2.635   1.303   0.791  1.00  0.00    -0.302 OA
ENDROOT
BRANCH   1   2
HETATM    2  C1  UNL     1       3.912   1.464   1.260  1.00  0.00     0.121 A 
HETATM    3  C2  UNL     1       4.266   2.642   1.943  1.00  0.00     0.117 A 
HETATM    4  C3  UNL     1       5.617   2.805   2.287  1.00  0.00     0.031 A 
HETATM    5  C4  UNL     1       6.574   1.815   2.037  1.00  0.00     0.064 A 
HETATM    6  C5  UNL     1       6.224   0.610   1.415  1.00  0.00     0.105 A 
HETATM    7  C9  UNL     1       7.998   2.030   2.386  1.00  0.00     0.200 C 
HETATM    8  C6  UNL     1       4.895   0.496   1.009  1.00  0.00     0.051 A 
HETATM    9  O1  UNL     1       7.105  -0.405   1.187  1.00  0.00    -0.305 OA
HETATM   10  C7  UNL     1       8.431  -0.127   1.310  1.00  0.00     0.126 C 
HETATM   11  C8  UNL     1       8.932   0.988   1.885  1.00  0.00     0.064 C 
HETATM   12  O2  UNL     1       8.374   3.003   3.034  1.00  0.00    -0.286 OA
BRANCH   3  13
HETATM   13  O4  UNL     1       3.292   3.588   2.143  1.00  0.00    -0.326 OA
HETATM   14  C17 UNL     1       3.685   4.903   2.462  1.00  0.00     0.181 C 
ENDBRANCH   3  13
BRANCH  11  15
HETATM   15  C10 UNL     1      10.396   1.218   1.937  1.00  0.00     0.005 A 
HETATM   16  C11 UNL     1      11.280   0.174   2.231  1.00  0.00     0.002 A 
HETATM   17  C12 UNL     1      12.659   0.387   2.240  1.00  0.00     0.024 A 
HETATM   18  C13 UNL     1      13.233   1.630   1.946  1.00  0.00     0.094 A 
HETATM   19  C14 UNL     1      12.334   2.665   1.648  1.00  0.00     0.024 A 
HETATM   20  C15 UNL     1      10.951   2.469   1.642  1.00  0.00     0.002 A 
BRANCH  18  21
HETATM   21  O3  UNL     1      14.600   1.748   1.977  1.00  0.00    -0.328 OA
HETATM   22  C16 UNL     1      15.168   3.015   1.738  1.00  0.00     0.181 C 
ENDBRANCH  18  21
ENDBRANCH  11  15
ENDBRANCH   1   2
BRANCH   1  23
HETATM   23  C18 UNL     1       1.946   0.180   1.290  1.00  0.00     0.274 C 
HETATM   24  O6  UNL     1       1.134  -0.225   0.212  1.00  0.00    -0.326 OA
HETATM   25  C19 UNL     1       0.406  -1.388   0.508  1.00  0.00     0.180 C 
HETATM   26  C20 UNL     1      -0.493  -1.144   1.716  1.00  0.00     0.215 C 
HETATM   27  C21 UNL     1       0.315  -0.645   2.901  1.00  0.00     0.220 C 
HETATM   28  O9  UNL     1      -1.137  -2.334   2.100  1.00  0.00    -0.218 OA
HETATM   29  C22 UNL     1       1.095   0.579   2.469  1.00  0.00     0.241 C 
HETATM   30  O8  UNL     1      -0.554  -0.315   3.955  1.00  0.00    -0.218 OA
HETATM   31  O7  UNL     1       1.932   1.022   3.507  1.00  0.00    -0.215 OA
BRANCH  25  32
HETATM   32  C23 UNL     1      -0.376  -1.771  -0.745  1.00  0.00     0.177 C 
BRANCH  32  33
HETATM   33  O10 UNL     1       0.550  -1.968  -1.786  1.00  0.00    -0.326 OA
BRANCH  33  34
HETATM   34  C24 UNL     1      -0.037  -2.236  -3.040  1.00  0.00     0.270 C 
HETATM   35  O11 UNL     1      -0.461  -3.577  -2.999  1.00  0.00    -0.329 OA
HETATM   36  C25 UNL     1      -1.042  -4.011  -4.199  1.00  0.00     0.151 C 
HETATM   37  C26 UNL     1      -0.115  -3.817  -5.397  1.00  0.00     0.212 C 
HETATM   38  C29 UNL     1      -2.447  -3.433  -4.391  1.00  0.00     0.035 C 
HETATM   39  C27 UNL     1       0.560  -2.457  -5.449  1.00  0.00     0.220 C 
HETATM   40  O14 UNL     1       0.897  -4.800  -5.352  1.00  0.00    -0.218 OA
HETATM   41  C28 UNL     1       1.050  -2.064  -4.074  1.00  0.00     0.241 C 
HETATM   42  O13 UNL     1      -0.340  -1.470  -5.888  1.00  0.00    -0.218 OA
HETATM   43  O12 UNL     1       1.433  -0.711  -4.100  1.00  0.00    -0.215 OA
ENDBRANCH  33  34
ENDBRANCH  32  33
ENDBRANCH  25  32
ENDBRANCH   1  23
TORSDOF 8
