REMARK  0 active torsions:
REMARK  status: ('A' for Active; 'I' for Inactive)
ROOT
HETATM    1  C1  UNL     1      -1.370  -0.146  -0.576  1.00  0.00     0.133 A 
HETATM    2  C2  UNL     1      -0.390  -0.929   0.040  1.00  0.00     0.023 A 
HETATM    3  C3  UNL     1       0.878  -0.428   0.354  1.00  0.00    -0.013 A 
HETATM    4  C4  UNL     1       1.157   0.914   0.048  1.00  0.00     0.085 A 
HETATM    5  C5  UNL     1       0.197   1.733  -0.565  1.00  0.00     0.138 A 
HETATM    6  C6  UNL     1      -1.048   1.179  -0.872  1.00  0.00     0.055 A 
HETATM    7  O1  UNL     1       0.466   3.018  -0.920  1.00  0.00    -0.190 OA
HETATM    8  C7  UNL     1       2.510   1.514   0.331  1.00  0.00     0.297 C 
HETATM    9  O2  UNL     1       3.665   0.927  -0.104  1.00  0.00    -0.301 OA
HETATM   10  C8  UNL     1       4.847   1.681  -0.052  1.00  0.00     0.125 C 
HETATM   11  C9  UNL     1       6.040   0.794  -0.443  1.00  0.00     0.030 C 
HETATM   12  C10 UNL     1       6.550  -0.163   0.654  1.00  0.00     0.003 C 
HETATM   13  C11 UNL     1       5.540  -1.183   1.201  1.00  0.00     0.000 C 
HETATM   14  C12 UNL     1       5.119  -2.236   0.166  1.00  0.00     0.000 C 
HETATM   15  C13 UNL     1       3.815  -2.987   0.501  1.00  0.00     0.000 C 
HETATM   16  C14 UNL     1       2.539  -2.273   0.010  1.00  0.00     0.005 C 
HETATM   17  C15 UNL     1       1.873  -1.345   1.037  1.00  0.00     0.027 C 
HETATM   18  C16 UNL     1       4.734   2.924  -0.953  1.00  0.00     0.033 C 
HETATM   19  O3  UNL     1       2.534   2.597   0.903  1.00  0.00    -0.259 OA
HETATM   20  O4  UNL     1      -2.590  -0.653  -0.895  1.00  0.00    -0.190 OA
ENDROOT
TORSDOF 0
