REMARK  1 active torsions:
REMARK  status: ('A' for Active; 'I' for Inactive)
REMARK    1  A    between atoms: C8_9  and  C10_12 
ROOT
HETATM    1  C10 UNL     1       2.704  -0.997   0.519  1.00  0.00     0.011 A 
HETATM    2  C11 UNL     1       2.683  -2.397   0.466  1.00  0.00     0.129 A 
HETATM    3  C12 UNL     1       3.899  -3.082   0.516  1.00  0.00     0.051 A 
HETATM    4  C13 UNL     1       5.153  -2.465   0.610  1.00  0.00     0.092 A 
HETATM    5  C14 UNL     1       5.150  -1.060   0.690  1.00  0.00    -0.000 A 
HETATM    6  C15 UNL     1       3.943  -0.358   0.623  1.00  0.00    -0.004 A 
HETATM    7  C16 UNL     1       6.418  -0.268   0.873  1.00  0.00     0.026 C 
HETATM    8  C17 UNL     1       7.535  -1.280   1.089  1.00  0.00     0.030 C 
HETATM    9  C18 UNL     1       7.406  -2.762   1.311  1.00  0.00     0.099 C 
HETATM   10  O3  UNL     1       6.266  -3.269   0.693  1.00  0.00    -0.336 OA
HETATM   11  C19 UNL     1       8.700  -3.180   0.552  1.00  0.00     0.028 C 
HETATM   12  C20 UNL     1       9.147  -1.972  -0.338  1.00  0.00     0.003 C 
HETATM   13  C21 UNL     1       7.807  -1.260  -0.457  1.00  0.00     0.003 C 
HETATM   14  C22 UNL     1       7.292   0.190  -0.351  1.00  0.00     0.004 C 
HETATM   15  C23 UNL     1       6.444   0.622  -1.555  1.00  0.00     0.000 C 
HETATM   16  C24 UNL     1       8.368   1.242  -0.047  1.00  0.00     0.000 C 
HETATM   17  C25 UNL     1       7.396  -3.151   2.785  1.00  0.00     0.030 C 
HETATM   18  O4  UNL     1       1.522  -3.099   0.375  1.00  0.00    -0.190 OA
ENDROOT
BRANCH   1  19
HETATM   19  C8  UNL     1       1.418  -0.191   0.486  1.00  0.00     0.103 C 
HETATM   20  C7  UNL     1       1.288   0.738   1.690  1.00  0.00     0.160 C 
HETATM   21  O1  UNL     1       0.006   1.303   1.737  1.00  0.00    -0.330 OA
HETATM   22  C5  UNL     1      -0.423   1.925   0.594  1.00  0.00     0.100 A 
HETATM   23  C4  UNL     1       0.185   1.681  -0.737  1.00  0.00     0.069 A 
HETATM   24  C6  UNL     1      -1.387   2.875   0.707  1.00  0.00     0.051 A 
HETATM   25  C3  UNL     1      -0.223   2.302  -1.879  1.00  0.00     0.133 A 
HETATM   26  C9  UNL     1       1.276   0.629  -0.785  1.00  0.00     0.119 C 
HETATM   27  C2  UNL     1      -1.334   3.305  -1.796  1.00  0.00     0.029 A 
HETATM   28  O5  UNL     1       0.292   2.025  -3.108  1.00  0.00    -0.190 OA
HETATM   29  C1  UNL     1      -1.916   3.647  -0.449  1.00  0.00     0.131 A 
HETATM   30  C26 UNL     1      -1.821   3.994  -3.045  1.00  0.00     0.035 C 
HETATM   31  O6  UNL     1      -2.962   4.498  -0.294  1.00  0.00    -0.190 OA
HETATM   32  O2  UNL     1       2.073   0.426  -1.811  1.00  0.00    -0.194 OA
ENDBRANCH   1  19
TORSDOF 1
