REMARK  5 active torsions:
REMARK  status: ('A' for Active; 'I' for Inactive)
REMARK    1  A    between atoms: C1_1  and  C16_21 
REMARK    2  A    between atoms: C5_5  and  C7_8 
REMARK    3  A    between atoms: C7_8  and  C8_9 
REMARK    4  A    between atoms: C9_10  and  C10_11 
REMARK    5  A    between atoms: C16_21  and  C17_22 
ROOT
HETATM    1  C1  UNL     1       4.056  -2.139   0.210  1.00  0.00     0.033 A 
HETATM    2  C2  UNL     1       4.251  -3.220   1.081  1.00  0.00     0.131 A 
HETATM    3  C3  UNL     1       3.181  -4.084   1.315  1.00  0.00     0.055 A 
HETATM    4  C4  UNL     1       1.924  -3.906   0.733  1.00  0.00     0.138 A 
HETATM    5  C5  UNL     1       1.758  -2.816  -0.134  1.00  0.00     0.089 A 
HETATM    6  C6  UNL     1       2.820  -1.939  -0.420  1.00  0.00     0.134 A 
HETATM    7  O1  UNL     1       2.673  -0.890  -1.274  1.00  0.00    -0.190 OA
HETATM    8  O4  UNL     1       0.923  -4.787   1.006  1.00  0.00    -0.190 OA
HETATM    9  O5  UNL     1       5.442  -3.447   1.697  1.00  0.00    -0.190 OA
ENDROOT
BRANCH   5  10
HETATM   10  C7  UNL     1       0.415  -2.630  -0.778  1.00  0.00     0.200 C 
HETATM   11  O3  UNL     1      -0.170  -3.607  -1.233  1.00  0.00    -0.286 OA
BRANCH  10  12
HETATM   12  C8  UNL     1      -0.220  -1.288  -0.883  1.00  0.00     0.042 C 
HETATM   13  C9  UNL     1       0.115  -0.207  -0.143  1.00  0.00     0.003 C 
BRANCH  13  14
HETATM   14  C10 UNL     1      -0.484   1.126  -0.328  1.00  0.00     0.000 A 
HETATM   15  C11 UNL     1       0.239   2.255   0.089  1.00  0.00     0.002 A 
HETATM   16  C12 UNL     1      -0.265   3.540  -0.108  1.00  0.00     0.027 A 
HETATM   17  C13 UNL     1      -1.514   3.750  -0.703  1.00  0.00     0.131 A 
HETATM   18  C14 UNL     1      -2.255   2.622  -1.067  1.00  0.00     0.027 A 
HETATM   19  O2  UNL     1      -2.006   5.001  -0.906  1.00  0.00    -0.190 OA
HETATM   20  C15 UNL     1      -1.756   1.331  -0.880  1.00  0.00     0.002 A 
ENDBRANCH  13  14
ENDBRANCH  10  12
ENDBRANCH   5  10
BRANCH   1  21
HETATM   21  C16 UNL     1       5.184  -1.160  -0.050  1.00  0.00     0.056 C 
BRANCH  21  22
HETATM   22  C17 UNL     1       4.865   0.118   0.684  1.00  0.00    -0.030 C 
HETATM   23  C18 UNL     1       4.916   1.378   0.217  1.00  0.00    -0.048 C 
HETATM   24  C19 UNL     1       4.569   2.546   1.114  1.00  0.00     0.026 C 
HETATM   25  C20 UNL     1       5.335   1.776  -1.177  1.00  0.00     0.026 C 
ENDBRANCH  21  22
ENDBRANCH   1  21
TORSDOF 5
