REMARK  9 active torsions:
REMARK  status: ('A' for Active; 'I' for Inactive)
REMARK    1  A    between atoms: C6_6  and  C7_7 
REMARK    2  A    between atoms: C7_7  and  C8_8 
REMARK    3  A    between atoms: N1_9  and  O3_37 
REMARK    4  A    between atoms: C10_11  and  O1_27 
REMARK    5  A    between atoms: O1_27  and  C25_28 
REMARK    6  A    between atoms: C25_28  and  C26_30 
REMARK    7  A    between atoms: O3_37  and  C32_38 
REMARK    8  A    between atoms: C32_38  and  C33_40 
REMARK    9  A    between atoms: N3_50  and  C42_51 
ROOT
HETATM    1  C8  UNL     1       0.998  -0.963  -0.412  1.00  0.00     0.085 C 
HETATM    2  N1  UNL     1       1.790   0.093   0.238  1.00  0.00    -0.158 NA
HETATM    3  C9  UNL     1       0.989   0.738   1.302  1.00  0.00     0.110 C 
HETATM    4  C10 UNL     1      -0.012   1.725   0.616  1.00  0.00     0.119 C 
HETATM    5  C11 UNL     1      -0.323   1.156  -0.801  1.00  0.00     0.031 C 
HETATM    6  C12 UNL     1      -0.371  -0.380  -0.832  1.00  0.00     0.021 C 
HETATM    7  C13 UNL     1       0.450   3.207   0.451  1.00  0.00     0.060 C 
HETATM    8  C14 UNL     1       1.741   3.616   1.161  1.00  0.00     0.006 C 
HETATM    9  C15 UNL     1       1.536   3.711   2.676  1.00  0.00     0.032 C 
HETATM   10  C16 UNL     1       1.411   2.361   3.416  1.00  0.00     0.003 C 
HETATM   11  C17 UNL     1       1.831   1.173   2.535  1.00  0.00     0.021 C 
HETATM   12  C18 UNL     1       0.121   2.147   4.220  1.00  0.00     0.000 C 
HETATM   13  C19 UNL     1      -0.285   3.348   5.096  1.00  0.00     0.002 C 
HETATM   14  C20 UNL     1       0.236   4.687   4.543  1.00  0.00     0.033 C 
HETATM   15  C21 UNL     1       0.393   4.689   3.010  1.00  0.00     0.219 C 
HETATM   16  N2  UNL     1      -0.833   4.370   2.279  1.00  0.00     0.137 N 
HETATM   17  C22 UNL     1      -0.600   4.279   0.838  1.00  0.00     0.253 C 
HETATM   18  C23 UNL     1      -1.893   5.332   2.550  1.00  0.00     0.285 C 
HETATM   19  C24 UNL     1       0.155   3.152   6.558  1.00  0.00     0.000 C 
ENDROOT
BRANCH   1  20
HETATM   20  C7  UNL     1       1.695  -1.671  -1.605  1.00  0.00     0.018 C 
BRANCH  20  21
HETATM   21  C6  UNL     1       1.503  -3.204  -1.645  1.00  0.00     0.003 C 
HETATM   22  C1  UNL     1       0.034  -3.641  -1.706  1.00  0.00     0.000 C 
HETATM   23  C2  UNL     1      -0.113  -5.165  -1.571  1.00  0.00     0.002 C 
HETATM   24  C3  UNL     1       0.703  -5.868  -2.666  1.00  0.00     0.033 C 
HETATM   25  C44 UNL     1       0.234  -5.688  -0.166  1.00  0.00     0.000 C 
HETATM   26  C4  UNL     1       2.185  -5.437  -2.746  1.00  0.00     0.219 C 
HETATM   27  C5  UNL     1       2.343  -3.894  -2.747  1.00  0.00     0.031 C 
HETATM   28  N3  UNL     1       2.779  -6.072  -3.930  1.00  0.00     0.135 N 
HETATM   29  C39 UNL     1       2.148  -3.375  -4.178  1.00  0.00     0.004 C 
HETATM   30  C40 UNL     1       3.244  -3.958  -5.086  1.00  0.00     0.035 C 
HETATM   31  C41 UNL     1       3.829  -5.270  -4.531  1.00  0.00     0.250 C 
BRANCH  28  32
HETATM   32  C42 UNL     1       3.203  -7.452  -3.702  1.00  0.00     0.250 C 
HETATM   33  C43 UNL     1       4.468  -7.645  -2.848  1.00  0.00     0.037 C 
ENDBRANCH  28  32
ENDBRANCH  20  21
ENDBRANCH   1  20
BRANCH   2  34
HETATM   34  O3  UNL     1       3.013  -0.322   0.529  1.00  0.00    -0.218 OA
BRANCH  34  35
HETATM   35  C32 UNL     1       4.045   0.562   0.301  1.00  0.00     0.312 C 
HETATM   36  O4  UNL     1       5.022   0.512   1.047  1.00  0.00    -0.258 OA
BRANCH  35  37
HETATM   37  C33 UNL     1       4.089   1.609  -0.770  1.00  0.00     0.065 A 
HETATM   38  C34 UNL     1       4.920   2.728  -0.601  1.00  0.00     0.006 A 
HETATM   39  C35 UNL     1       4.933   3.763  -1.540  1.00  0.00     0.007 A 
HETATM   40  C36 UNL     1       4.117   3.692  -2.670  1.00  0.00     0.035 A 
HETATM   41  C37 UNL     1       3.298   2.576  -2.864  1.00  0.00     0.007 A 
HETATM   42 BR2  UNL     1       4.108   5.097  -3.932  1.00  0.00    -0.049 Br
HETATM   43  C38 UNL     1       3.290   1.548  -1.922  1.00  0.00     0.006 A 
ENDBRANCH  35  37
ENDBRANCH  34  35
ENDBRANCH   2  34
BRANCH   4  44
HETATM   44  O1  UNL     1      -1.262   1.780   1.241  1.00  0.00    -0.302 OA
BRANCH  44  45
HETATM   45  C25 UNL     1      -1.857   0.635   1.698  1.00  0.00     0.296 C 
HETATM   46  O2  UNL     1      -2.707  -0.129   2.143  1.00  0.00    -0.259 OA
BRANCH  45  47
HETATM   47  C26 UNL     1      -3.241   1.381   1.420  1.00  0.00     0.063 A 
HETATM   48  C27 UNL     1      -3.736   2.333   2.321  1.00  0.00     0.006 A 
HETATM   49  C28 UNL     1      -4.910   3.030   2.021  1.00  0.00     0.007 A 
HETATM   50  C29 UNL     1      -5.585   2.778   0.824  1.00  0.00     0.035 A 
HETATM   51  C30 UNL     1      -5.094   1.830  -0.077  1.00  0.00     0.007 A 
HETATM   52 BR1  UNL     1      -7.153   3.745   0.403  1.00  0.00    -0.049 Br
HETATM   53  C31 UNL     1      -3.921   1.134   0.220  1.00  0.00     0.006 A 
ENDBRANCH  45  47
ENDBRANCH  44  45
ENDBRANCH   4  44
TORSDOF 9
