REMARK  4 active torsions:
REMARK  status: ('A' for Active; 'I' for Inactive)
REMARK    1  A    between atoms: C4_4  and  C7_7 
REMARK    2  A    between atoms: C7_7  and  S1_8 
REMARK    3  A    between atoms: S1_8  and  C8_9 
REMARK    4  A    between atoms: C8_9  and  C9_10 
ROOT
HETATM    1  S1  UNL     1       1.887  -0.109   0.124  1.00  0.00    -0.130 SA
ENDROOT
BRANCH   1   2
HETATM    2  C7  UNL     1       2.638  -0.630  -1.449  1.00  0.00     0.084 C 
BRANCH   2   3
HETATM    3  C4  UNL     1       3.880   0.195  -1.690  1.00  0.00    -0.011 A 
HETATM    4  C3  UNL     1       5.141  -0.265  -1.292  1.00  0.00    -0.003 A 
HETATM    5  C2  UNL     1       6.287   0.499  -1.522  1.00  0.00    -0.000 A 
HETATM    6  C1  UNL     1       6.187   1.737  -2.158  1.00  0.00    -0.000 A 
HETATM    7  C6  UNL     1       4.936   2.207  -2.561  1.00  0.00    -0.000 A 
HETATM    8  C5  UNL     1       3.794   1.439  -2.328  1.00  0.00    -0.003 A 
ENDBRANCH   2   3
ENDBRANCH   1   2
BRANCH   1   9
HETATM    9  C8  UNL     1       0.352  -1.081   0.013  1.00  0.00     0.084 C 
BRANCH   9  10
HETATM   10  C9  UNL     1      -0.516  -0.785   1.214  1.00  0.00    -0.011 A 
HETATM   11  C10 UNL     1      -0.678  -1.722   2.240  1.00  0.00    -0.003 A 
HETATM   12  C11 UNL     1      -1.490  -1.446   3.343  1.00  0.00    -0.000 A 
HETATM   13  C12 UNL     1      -2.152  -0.221   3.434  1.00  0.00    -0.000 A 
HETATM   14  C13 UNL     1      -2.002   0.722   2.417  1.00  0.00    -0.000 A 
HETATM   15  C14 UNL     1      -1.193   0.437   1.315  1.00  0.00    -0.003 A 
ENDBRANCH   9  10
ENDBRANCH   1   9
TORSDOF 4
