REMARK  2 active torsions:
REMARK  status: ('A' for Active; 'I' for Inactive)
REMARK    1  A    between atoms: C12_14  and  C30_40 
REMARK    2  A    between atoms: C24_28  and  C26_31 
ROOT
HETATM    1  C1  UNL     1      -2.194  -2.533  -3.733  1.00  0.00     0.215 C 
HETATM    2  C2  UNL     1      -1.926  -4.022  -3.586  1.00  0.00     0.220 C 
HETATM    3  C3  UNL     1      -1.595  -4.329  -2.137  1.00  0.00     0.241 C 
HETATM    4  C4  UNL     1      -0.523  -3.395  -1.623  1.00  0.00     0.270 C 
HETATM    5  O1  UNL     1      -0.843  -2.040  -1.831  1.00  0.00    -0.326 OA
HETATM    6  C5  UNL     1      -1.037  -1.709  -3.177  1.00  0.00     0.181 C 
HETATM    7  C6  UNL     1      -1.306  -0.207  -3.243  1.00  0.00     0.184 C 
HETATM    8  O2  UNL     1      -0.119   0.500  -2.972  1.00  0.00    -0.296 OA
HETATM    9  C7  UNL     1      -0.090   1.476  -2.014  1.00  0.00     0.291 C 
HETATM   10  C8  UNL     1       0.981   2.514  -2.056  1.00  0.00     0.037 C 
HETATM   11  C9  UNL     1       0.922   3.570  -1.212  1.00  0.00    -0.025 C 
HETATM   12  C10 UNL     1       1.795   4.801  -1.256  1.00  0.00     0.029 C 
HETATM   13  C11 UNL     1       2.284   5.331   0.103  1.00  0.00     0.036 C 
HETATM   14  C12 UNL     1       3.419   4.585   0.841  1.00  0.00     0.114 C 
HETATM   15  O3  UNL     1       2.905   3.355   1.299  1.00  0.00    -0.330 OA
HETATM   16  C13 UNL     1       3.867   2.506   1.896  1.00  0.00     0.270 C 
HETATM   17  C14 UNL     1       3.237   1.794   3.067  1.00  0.00     0.241 C 
HETATM   18  C15 UNL     1       4.261   0.883   3.706  1.00  0.00     0.220 C 
HETATM   19  C16 UNL     1       4.912   0.002   2.656  1.00  0.00     0.215 C 
HETATM   20  C17 UNL     1       5.261   0.707   1.343  1.00  0.00     0.181 C 
HETATM   21  C18 UNL     1       5.572  -0.253   0.183  1.00  0.00     0.184 C 
HETATM   22  O4  UNL     1       4.378  -0.744  -0.380  1.00  0.00    -0.296 OA
HETATM   23  C19 UNL     1       3.756  -1.771   0.270  1.00  0.00     0.291 C 
HETATM   24  C20 UNL     1       2.319  -1.624   0.636  1.00  0.00     0.037 C 
HETATM   25  C21 UNL     1       1.823  -2.372   1.646  1.00  0.00    -0.025 C 
HETATM   26  C22 UNL     1       0.467  -2.240   2.297  1.00  0.00     0.029 C 
HETATM   27  C23 UNL     1      -0.436  -3.467   2.092  1.00  0.00     0.036 C 
HETATM   28  C24 UNL     1      -1.172  -3.572   0.734  1.00  0.00     0.114 C 
HETATM   29  O5  UNL     1      -0.171  -3.537  -0.260  1.00  0.00    -0.330 OA
HETATM   30  C25 UNL     1      -2.171  -2.409   0.630  1.00  0.00     0.034 C 
HETATM   31  C28 UNL     1       1.545  -0.549  -0.083  1.00  0.00     0.036 C 
HETATM   32  O6  UNL     1       4.422  -2.675   0.772  1.00  0.00    -0.260 OA
HETATM   33  O7  UNL     1       4.229   1.560   0.920  1.00  0.00    -0.326 OA
HETATM   34  O8  UNL     1       6.083  -0.538   3.225  1.00  0.00    -0.218 OA
HETATM   35  O9  UNL     1       5.253   1.678   4.307  1.00  0.00    -0.218 OA
HETATM   36  O10 UNL     1       2.835   2.751   4.015  1.00  0.00    -0.215 OA
HETATM   37  C29 UNL     1       3.765   5.469   2.059  1.00  0.00     0.034 C 
HETATM   38  C32 UNL     1       2.050   2.321  -3.105  1.00  0.00     0.036 C 
HETATM   39  O11 UNL     1      -1.012   1.590  -1.210  1.00  0.00    -0.260 OA
HETATM   40  O12 UNL     1      -1.127  -5.654  -2.073  1.00  0.00    -0.215 OA
HETATM   41  O13 UNL     1      -0.819  -4.410  -4.364  1.00  0.00    -0.218 OA
HETATM   42  O14 UNL     1      -2.424  -2.224  -5.088  1.00  0.00    -0.218 OA
ENDROOT
BRANCH  14  43
HETATM   43  C30 UNL     1       4.588   4.353  -0.102  1.00  0.00     0.000 C 
HETATM   44  C31 UNL     1       5.845   4.792   0.060  1.00  0.00    -0.003 C 
ENDBRANCH  14  43
BRANCH  28  45
HETATM   45  C26 UNL     1      -1.835  -4.944   0.789  1.00  0.00     0.000 C 
HETATM   46  C27 UNL     1      -3.146  -5.193   0.922  1.00  0.00    -0.003 C 
ENDBRANCH  28  45
TORSDOF 2
