REMARK  1 active torsions:
REMARK  status: ('A' for Active; 'I' for Inactive)
REMARK    1  A    between atoms: C15_17  and  C16_19 
ROOT
HETATM    1  C1  UNL     1      -3.442   2.720   2.473  1.00  0.00     0.037 C 
HETATM    2  C2  UNL     1      -3.507   1.196   2.494  1.00  0.00     0.025 C 
HETATM    3  C3  UNL     1      -2.587   0.645   1.449  1.00  0.00    -0.042 C 
HETATM    4  C4  UNL     1      -1.176   1.144   1.449  1.00  0.00     0.048 C 
HETATM    5  C5  UNL     1      -1.176   2.667   1.449  1.00  0.00     0.034 C 
HETATM    6  C6  UNL     1      -1.997   3.175   2.627  1.00  0.00     0.153 C 
HETATM    7  O1  UNL     1      -1.949   4.576   2.660  1.00  0.00    -0.223 OA
HETATM    8  C7  UNL     1       0.255   3.175   1.571  1.00  0.00     0.003 C 
HETATM    9  C8  UNL     1       1.222   2.009   1.419  1.00  0.00     0.003 C 
HETATM   10  C9  UNL     1       0.922   1.275   0.120  1.00  0.00     0.028 C 
HETATM   11  C10 UNL     1      -0.458   0.637   0.206  1.00  0.00     0.122 C 
HETATM   12  O2  UNL     1      -0.324  -0.757   0.280  1.00  0.00    -0.331 OA
HETATM   13  C11 UNL     1       0.309  -1.457  -0.757  1.00  0.00     0.270 A 
HETATM   14  C12 UNL     1       1.514  -2.213  -0.212  1.00  0.00     0.241 A 
HETATM   15  C13 UNL     1       2.205  -2.953  -1.350  1.00  0.00     0.220 C 
HETATM   16  C14 UNL     1       1.174  -3.751  -2.137  1.00  0.00     0.215 C 
HETATM   17  C15 UNL     1       0.003  -2.848  -2.502  1.00  0.00     0.184 C 
HETATM   18  O3  UNL     1      -0.574  -2.402  -1.305  1.00  0.00    -0.326 OA
HETATM   19  O5  UNL     1       1.763  -4.248  -3.308  1.00  0.00    -0.218 OA
HETATM   20  O6  UNL     1       3.168  -3.825  -0.823  1.00  0.00    -0.218 OA
HETATM   21  O7  UNL     1       2.411  -1.306   0.368  1.00  0.00    -0.215 OA
HETATM   22  C17 UNL     1       1.969   0.192  -0.104  1.00  0.00     0.002 C 
HETATM   23  C18 UNL     1       2.700   0.456  -1.413  1.00  0.00     0.000 C 
HETATM   24  O8  UNL     1       1.341  -1.060  -0.163  1.00  0.00     0.000 OA
HETATM   25  C19 UNL     1       2.968   0.204   1.046  1.00  0.00     0.000 C 
HETATM   26  C20 UNL     1      -1.785   3.175   0.149  1.00  0.00     0.003 C 
HETATM   27  C21 UNL     1      -3.008  -0.254   0.554  1.00  0.00    -0.009 C 
ENDROOT
BRANCH  17  28
HETATM   28  C16 UNL     1      -1.022  -3.629  -3.314  1.00  0.00     0.214 C 
HETATM   29  O4  UNL     1      -1.197  -3.015  -4.562  1.00  0.00    -0.218 OA
ENDBRANCH  17  28
TORSDOF 1
