REMARK  4 active torsions:
REMARK  status: ('A' for Active; 'I' for Inactive)
REMARK    1  A    between atoms: C15_17  and  C16_19 
REMARK    2  A    between atoms: C16_19  and  O4_20 
REMARK    3  A    between atoms: O4_20  and  C17_21 
REMARK    4  A    between atoms: C21_25  and  C22_27 
ROOT
HETATM    1  C1  UNL     1      -2.406   3.487   4.464  1.00  0.00     0.035 C 
HETATM    2  C2  UNL     1      -2.413   1.960   4.453  1.00  0.00     0.033 C 
HETATM    3  C3  UNL     1      -1.696   1.455   3.208  1.00  0.00     0.129 C 
HETATM    4  C4  UNL     1      -0.260   1.962   3.208  1.00  0.00     0.058 C 
HETATM    5  C5  UNL     1      -0.260   3.485   3.208  1.00  0.00     0.033 C 
HETATM    6  C6  UNL     1      -0.970   3.993   4.456  1.00  0.00     0.152 C 
HETATM    7  O1  UNL     1      -0.968   5.395   4.456  1.00  0.00    -0.224 OA
HETATM    8  C7  UNL     1       1.176   3.993   3.199  1.00  0.00     0.003 C 
HETATM    9  C8  UNL     1       2.133   2.808   3.211  1.00  0.00     0.003 C 
HETATM   10  C9  UNL     1       1.899   1.948   1.973  1.00  0.00     0.027 C 
HETATM   11  C10 UNL     1       0.458   1.455   1.964  1.00  0.00     0.120 C 
HETATM   12  O2  UNL     1       0.445   0.053   1.957  1.00  0.00    -0.333 OA
HETATM   13  C11 UNL     1       1.050  -0.649   0.905  1.00  0.00     0.238 A 
HETATM   14  C12 UNL     1       2.144  -1.557   1.448  1.00  0.00     0.097 A 
HETATM   15  C13 UNL     1       2.808  -2.299   0.294  1.00  0.00     0.190 C 
HETATM   16  C14 UNL     1       1.737  -2.938  -0.580  1.00  0.00     0.212 C 
HETATM   17  C15 UNL     1       0.683  -1.897  -0.934  1.00  0.00     0.180 C 
HETATM   18  O3  UNL     1       0.100  -1.463   0.265  1.00  0.00    -0.328 OA
HETATM   19  O10 UNL     1       2.325  -3.425  -1.756  1.00  0.00    -0.218 OA
HETATM   20  O11 UNL     1       3.651  -3.296   0.804  1.00  0.00    -0.221 OA
HETATM   21  C23 UNL     1       2.844   0.754   1.998  1.00  0.00     0.002 C 
HETATM   22  C24 UNL     1       3.735   0.787   0.763  1.00  0.00     0.000 C 
HETATM   23  O12 UNL     1       2.098  -0.432   2.005  1.00  0.00     0.000 OA
HETATM   24  C25 UNL     1       3.710   0.817   3.250  1.00  0.00     0.000 C 
HETATM   25  C26 UNL     1      -0.986   3.993   1.969  1.00  0.00     0.003 C 
HETATM   26  C27 UNL     1      -1.695  -0.068   3.206  1.00  0.00     0.033 C 
HETATM   27  O13 UNL     1      -2.357   1.924   2.064  1.00  0.00    -0.226 OA
ENDROOT
BRANCH  17  28
HETATM   28  C16 UNL     1      -0.379  -2.519  -1.832  1.00  0.00     0.177 C 
BRANCH  28  29
HETATM   29  O4  UNL     1      -0.434  -1.819  -3.046  1.00  0.00    -0.326 OA
BRANCH  29  30
HETATM   30  C17 UNL     1      -1.342  -2.208  -4.040  1.00  0.00     0.270 C 
HETATM   31  C18 UNL     1      -2.280  -1.054  -4.367  1.00  0.00     0.241 C 
HETATM   32  C19 UNL     1      -3.275  -1.495  -5.432  1.00  0.00     0.220 C 
HETATM   33  O9  UNL     1      -2.974  -0.674  -3.209  1.00  0.00    -0.215 OA
HETATM   34  C20 UNL     1      -2.526  -2.138  -6.592  1.00  0.00     0.215 C 
HETATM   35  O8  UNL     1      -3.986  -0.380  -5.897  1.00  0.00    -0.218 OA
HETATM   36  C21 UNL     1      -1.567  -3.192  -6.054  1.00  0.00     0.184 C 
HETATM   37  O7  UNL     1      -3.443  -2.742  -7.463  1.00  0.00    -0.218 OA
HETATM   38  O5  UNL     1      -0.650  -2.540  -5.217  1.00  0.00    -0.326 OA
BRANCH  36  39
HETATM   39  C22 UNL     1      -0.831  -3.861  -7.208  1.00  0.00     0.214 C 
HETATM   40  O6  UNL     1      -1.088  -5.239  -7.190  1.00  0.00    -0.218 OA
ENDBRANCH  36  39
ENDBRANCH  29  30
ENDBRANCH  28  29
ENDBRANCH  17  28
TORSDOF 4
