REMARK  2 active torsions:
REMARK  status: ('A' for Active; 'I' for Inactive)
REMARK    1  A    between atoms: C5_5  and  C20_28 
REMARK    2  A    between atoms: C15_17  and  C16_19 
ROOT
HETATM    1  C1  UNL     1      -3.088   2.639   1.834  1.00  0.00     0.037 C 
HETATM    2  C2  UNL     1      -3.154   1.115   1.855  1.00  0.00     0.025 C 
HETATM    3  C3  UNL     1      -2.233   0.565   0.810  1.00  0.00    -0.042 C 
HETATM    4  C4  UNL     1      -0.822   1.064   0.810  1.00  0.00     0.051 C 
HETATM    5  C5  UNL     1      -0.822   2.587   0.810  1.00  0.00     0.065 C 
HETATM    6  C6  UNL     1      -1.643   3.095   1.988  1.00  0.00     0.155 C 
HETATM    7  O1  UNL     1      -1.595   4.495   2.021  1.00  0.00    -0.223 OA
HETATM    8  C7  UNL     1       0.609   3.095   0.932  1.00  0.00     0.006 C 
HETATM    9  C8  UNL     1       1.576   1.928   0.780  1.00  0.00     0.005 C 
HETATM   10  C9  UNL     1       1.276   1.194  -0.519  1.00  0.00     0.056 C 
HETATM   11  C10 UNL     1      -0.104   0.556  -0.433  1.00  0.00     0.124 C 
HETATM   12  O2  UNL     1       0.030  -0.837  -0.359  1.00  0.00    -0.335 OA
HETATM   13  C11 UNL     1       0.663  -1.537  -1.396  1.00  0.00     0.221 A 
HETATM   14  C12 UNL     1       1.866  -2.293  -0.852  1.00  0.00     0.211 A 
HETATM   15  C13 UNL     1       1.407  -3.244   0.245  1.00  0.00     0.217 C 
HETATM   16  C14 UNL     1       0.233  -4.072  -0.260  1.00  0.00     0.215 C 
HETATM   17  C15 UNL     1      -0.816  -3.149  -0.865  1.00  0.00     0.184 C 
HETATM   18  O3  UNL     1      -0.218  -2.481  -1.943  1.00  0.00    -0.330 OA
HETATM   19  O5  UNL     1       0.682  -4.972  -1.236  1.00  0.00    -0.218 OA
HETATM   20  O6  UNL     1       1.009  -2.505   1.368  1.00  0.00    -0.218 OA
HETATM   21  O7  UNL     1       2.466  -3.025  -1.887  1.00  0.00    -0.218 OA
HETATM   22  C17 UNL     1       2.323   0.111  -0.743  1.00  0.00     0.136 C 
HETATM   23  C18 UNL     1       3.054   0.375  -2.053  1.00  0.00     0.033 C 
HETATM   24  C19 UNL     1       1.640  -1.249  -0.807  1.00  0.00     0.118 A 
HETATM   25  O8  UNL     1       3.243   0.122   0.315  1.00  0.00    -0.226 OA
HETATM   26  C21 UNL     1      -2.654  -0.335  -0.085  1.00  0.00    -0.009 C 
ENDROOT
BRANCH   5  27
HETATM   27  C20 UNL     1      -1.431   3.095  -0.490  1.00  0.00     0.185 C 
HETATM   28  O9  UNL     1      -0.419   3.607  -1.313  1.00  0.00    -0.221 OA
ENDBRANCH   5  27
BRANCH  17  29
HETATM   29  C16 UNL     1      -1.284  -2.141   0.176  1.00  0.00     0.214 C 
HETATM   30  O4  UNL     1      -2.667  -2.271   0.366  1.00  0.00    -0.218 OA
ENDBRANCH  17  29
TORSDOF 2
