REMARK  3 active torsions:
REMARK  status: ('A' for Active; 'I' for Inactive)
REMARK    1  A    between atoms: C3_3  and  O2_10 
REMARK    2  A    between atoms: O2_10  and  C9_11 
REMARK    3  A    between atoms: C13_15  and  C14_17 
ROOT
HETATM    1  C1  UNL     1       0.042   2.633  -1.607  1.00  0.00     0.052 C 
HETATM    2  C2  UNL     1       0.042   1.110  -1.607  1.00  0.00     0.032 C 
HETATM    3  C3  UNL     1      -0.047   0.602  -0.174  1.00  0.00     0.099 C 
HETATM    4  C4  UNL     1       1.240   0.982   0.443  1.00  0.00     0.065 C 
HETATM    5  C5  UNL     1       2.233   0.963  -0.712  1.00  0.00     0.176 C 
HETATM    6  C6  UNL     1       2.464   2.361  -1.194  1.00  0.00     0.002 C 
HETATM    7  C7  UNL     1       1.453   3.132  -1.607  1.00  0.00    -0.026 C 
HETATM    8  O1  UNL     1       3.446   0.413  -0.275  1.00  0.00    -0.218 OA
HETATM    9  C8  UNL     1      -1.207   1.264   0.558  1.00  0.00     0.030 C 
HETATM   10  C15 UNL     1      -1.233   0.741  -2.355  1.00  0.00     0.005 C 
HETATM   11  C16 UNL     1      -1.193   1.682  -3.433  1.00  0.00     0.031 C 
HETATM   12  C17 UNL     1      -0.627   3.001  -2.925  1.00  0.00     0.131 C 
HETATM   13  O8  UNL     1      -1.652   3.936  -2.719  1.00  0.00    -0.226 OA
HETATM   14  C18 UNL     1       0.338   3.644  -3.912  1.00  0.00     0.033 C 
ENDROOT
BRANCH   3  15
HETATM   15  O2  UNL     1      -0.272  -0.780  -0.116  1.00  0.00    -0.334 OA
BRANCH  15  16
HETATM   16  C9  UNL     1      -0.382  -1.422   1.126  1.00  0.00     0.270 C 
HETATM   17  C10 UNL     1      -1.739  -2.104   1.240  1.00  0.00     0.241 C 
HETATM   18  C11 UNL     1      -1.854  -2.779   2.600  1.00  0.00     0.220 C 
HETATM   19  O7  UNL     1      -2.755  -1.147   1.106  1.00  0.00    -0.215 OA
HETATM   20  C12 UNL     1      -0.618  -3.634   2.849  1.00  0.00     0.215 C 
HETATM   21  O6  UNL     1      -2.996  -3.593   2.621  1.00  0.00    -0.218 OA
HETATM   22  C13 UNL     1       0.632  -2.805   2.586  1.00  0.00     0.184 C 
HETATM   23  O5  UNL     1      -0.616  -4.073   4.181  1.00  0.00    -0.218 OA
HETATM   24  O3  UNL     1       0.605  -2.416   1.240  1.00  0.00    -0.326 OA
BRANCH  22  25
HETATM   25  C14 UNL     1       1.876  -3.642   2.859  1.00  0.00     0.214 C 
HETATM   26  O4  UNL     1       2.647  -3.023   3.853  1.00  0.00    -0.218 OA
ENDBRANCH  22  25
ENDBRANCH  15  16
ENDBRANCH   3  15
TORSDOF 3
