REMARK  1 active torsions:
REMARK  status: ('A' for Active; 'I' for Inactive)
REMARK    1  A    between atoms: C9_9  and  C11_11 
ROOT
HETATM    1  C1  UNL     1      -1.156   1.470  -1.964  1.00  0.00     0.153 C 
HETATM    2  C2  UNL     1      -1.804   0.296  -2.686  1.00  0.00     0.037 C 
HETATM    3  C3  UNL     1      -2.744  -0.508  -1.780  1.00  0.00     0.025 C 
HETATM    4  C4  UNL     1      -1.823  -1.060  -0.736  1.00  0.00    -0.044 C 
HETATM    5  C5  UNL     1      -0.412  -0.560  -0.736  1.00  0.00     0.021 C 
HETATM    6  C6  UNL     1      -0.412   0.963  -0.736  1.00  0.00     0.032 C 
HETATM    7  C7  UNL     1       1.024   1.470  -0.767  1.00  0.00     0.003 C 
HETATM    8  C8  UNL     1       1.767   0.965   0.463  1.00  0.00     0.004 C 
HETATM    9  C9  UNL     1       1.743  -0.563   0.506  1.00  0.00     0.019 C 
HETATM   10  C10 UNL     1       0.306  -1.068   0.508  1.00  0.00     0.008 C 
HETATM   11  C14 UNL     1      -1.103   1.470   0.523  1.00  0.00     0.003 C 
HETATM   12  C15 UNL     1      -2.244  -1.960   0.159  1.00  0.00    -0.009 C 
HETATM   13  O1  UNL     1      -2.148   2.378  -1.566  1.00  0.00    -0.223 OA
ENDROOT
BRANCH   9  14
HETATM   14  C11 UNL     1       2.432  -1.032   1.749  1.00  0.00    -0.044 C 
HETATM   15  C12 UNL     1       3.514  -1.814   1.660  1.00  0.00    -0.009 C 
HETATM   16  C13 UNL     1       1.911  -0.627   3.093  1.00  0.00     0.026 C 
ENDBRANCH   9  14
TORSDOF 1
