REMARK  1 active torsions:
REMARK  status: ('A' for Active; 'I' for Inactive)
REMARK    1  A    between atoms: C15_17  and  C16_19 
ROOT
HETATM    1  C1  UNL     1      -3.653   2.401  -2.213  1.00  0.00     0.035 C 
HETATM    2  C2  UNL     1      -3.810   1.434  -1.047  1.00  0.00     0.030 C 
HETATM    3  C3  UNL     1      -2.650   0.446  -1.047  1.00  0.00     0.095 C 
HETATM    4  C4  UNL     1      -1.333   1.210  -1.047  1.00  0.00     0.057 C 
HETATM    5  C5  UNL     1      -1.215   1.742  -2.469  1.00  0.00     0.060 C 
HETATM    6  C6  UNL     1      -2.140   2.940  -2.641  1.00  0.00     0.155 C 
HETATM    7  O1  UNL     1      -2.135   3.374  -3.974  1.00  0.00    -0.223 OA
HETATM    8  C7  UNL     1       0.222   2.169  -2.734  1.00  0.00     0.005 C 
HETATM    9  C8  UNL     1       0.945   2.369  -1.409  1.00  0.00     0.005 C 
HETATM   10  C9  UNL     1       1.127   1.015  -0.733  1.00  0.00     0.056 C 
HETATM   11  C10 UNL     1      -0.187   0.245  -0.769  1.00  0.00     0.123 C 
HETATM   12  O2  UNL     1      -0.395  -0.383   0.467  1.00  0.00    -0.331 OA
HETATM   13  C11 UNL     1       0.534  -1.320   0.941  1.00  0.00     0.270 C 
HETATM   14  C12 UNL     1       1.092  -0.864   2.283  1.00  0.00     0.241 C 
HETATM   15  C13 UNL     1       2.114  -1.878   2.779  1.00  0.00     0.220 C 
HETATM   16  C14 UNL     1       1.515  -3.277   2.709  1.00  0.00     0.215 C 
HETATM   17  C15 UNL     1       0.920  -3.506   1.326  1.00  0.00     0.184 C 
HETATM   18  O3  UNL     1      -0.098  -2.559   1.143  1.00  0.00    -0.326 OA
HETATM   19  O5  UNL     1       2.519  -4.227   2.948  1.00  0.00    -0.218 OA
HETATM   20  O6  UNL     1       2.458  -1.584   4.106  1.00  0.00    -0.218 OA
HETATM   21  O7  UNL     1       1.711   0.385   2.130  1.00  0.00    -0.215 OA
HETATM   22  C17 UNL     1       1.551   1.224   0.714  1.00  0.00     0.129 C 
HETATM   23  C18 UNL     1       2.907   0.570   0.945  1.00  0.00     0.033 C 
HETATM   24  O8  UNL     1       0.601   0.645   1.568  1.00  0.00    -0.226 OA
HETATM   25  C19 UNL     1       1.652   2.716   1.005  1.00  0.00     0.033 C 
HETATM   26  C20 UNL     1      -1.709   0.591  -3.335  1.00  0.00     0.145 C 
HETATM   27  O9  UNL     1      -2.660  -0.214  -2.283  1.00  0.00    -0.359 OA
HETATM   28  C21 UNL     1      -2.784  -0.479   0.156  1.00  0.00     0.030 C 
ENDROOT
BRANCH  17  29
HETATM   29  C16 UNL     1       0.343  -4.912   1.235  1.00  0.00     0.214 C 
HETATM   30  O4  UNL     1       0.977  -5.612   0.199  1.00  0.00    -0.218 OA
ENDBRANCH  17  29
TORSDOF 1
