REMARK  6 active torsions:
REMARK  status: ('A' for Active; 'I' for Inactive)
REMARK    1  A    between atoms: C5_5  and  O2_7 
REMARK    2  A    between atoms: O2_7  and  C6_8 
REMARK    3  A    between atoms: C6_8  and  C7_9 
REMARK    4  A    between atoms: C11_13  and  O4_15 
REMARK    5  A    between atoms: O4_15  and  C12_16 
REMARK    6  A    between atoms: C14_18  and  O6_23 
ROOT
HETATM    1  C7  UNL     1       0.660  -0.837   1.357  1.00  0.00     0.180 C 
HETATM    2  C8  UNL     1       1.130  -1.419   2.683  1.00  0.00     0.215 C 
HETATM    3  C9  UNL     1       2.633  -1.661   2.627  1.00  0.00     0.220 C 
HETATM    4  C10 UNL     1       3.332  -0.402   2.130  1.00  0.00     0.241 C 
HETATM    5  C11 UNL     1       2.653   0.086   0.857  1.00  0.00     0.274 C 
HETATM    6  O3  UNL     1       1.318   0.387   1.176  1.00  0.00    -0.326 OA
HETATM    7  O7  UNL     1       4.677  -0.690   1.861  1.00  0.00    -0.215 OA
HETATM    8  O8  UNL     1       3.103  -1.980   3.909  1.00  0.00    -0.218 OA
HETATM    9  O9  UNL     1       0.470  -2.633   2.921  1.00  0.00    -0.218 OA
ENDROOT
BRANCH   1  10
HETATM   10  C6  UNL     1      -0.847  -0.617   1.391  1.00  0.00     0.177 C 
BRANCH  10  11
HETATM   11  O2  UNL     1      -1.452  -1.357   0.366  1.00  0.00    -0.326 OA
BRANCH  11  12
HETATM   12  C5  UNL     1      -2.843  -1.313   0.197  1.00  0.00     0.270 C 
HETATM   13  C4  UNL     1      -3.425  -2.713   0.326  1.00  0.00     0.241 C 
HETATM   14  C3  UNL     1      -4.938  -2.644   0.171  1.00  0.00     0.220 C 
HETATM   15  O10 UNL     1      -2.888  -3.537  -0.673  1.00  0.00    -0.215 OA
HETATM   16  C2  UNL     1      -5.284  -1.858  -1.087  1.00  0.00     0.215 C 
HETATM   17  O11 UNL     1      -5.493  -2.004   1.288  1.00  0.00    -0.218 OA
HETATM   18  C1  UNL     1      -4.522  -0.539  -1.087  1.00  0.00     0.181 C 
HETATM   19  O12 UNL     1      -4.924  -2.605  -2.217  1.00  0.00    -0.218 OA
HETATM   20  O1  UNL     1      -3.154  -0.843  -1.087  1.00  0.00    -0.326 OA
ENDBRANCH  11  12
ENDBRANCH  10  11
ENDBRANCH   1  10
BRANCH   5  21
HETATM   21  O4  UNL     1       3.301   1.235   0.381  1.00  0.00    -0.304 OA
BRANCH  21  22
HETATM   22  C12 UNL     1       2.861   1.842  -0.748  1.00  0.00     0.099 A 
HETATM   23  C13 UNL     1       3.506   2.984  -1.222  1.00  0.00     0.051 A 
HETATM   24  C14 UNL     1       3.054   3.609  -2.384  1.00  0.00     0.121 A 
HETATM   25  C15 UNL     1       1.956   3.091  -3.072  1.00  0.00     0.153 A 
HETATM   26  C16 UNL     1       1.312   1.948  -2.598  1.00  0.00     0.031 A 
HETATM   27  O5  UNL     1       1.517   3.698  -4.201  1.00  0.00    -0.188 OA
HETATM   28  C17 UNL     1       1.764   1.324  -1.436  1.00  0.00     0.026 A 
BRANCH  24  29
HETATM   29  O6  UNL     1       3.680   4.719  -2.844  1.00  0.00    -0.326 OA
HETATM   30  C18 UNL     1       3.384   5.972  -2.288  1.00  0.00     0.181 C 
ENDBRANCH  24  29
ENDBRANCH  21  22
ENDBRANCH   5  21
TORSDOF 6
