REMARK  7 active torsions:
REMARK  status: ('A' for Active; 'I' for Inactive)
REMARK    1  A    between atoms: C3_3  and  C4_4 
REMARK    2  A    between atoms: C4_4  and  C5_5 
REMARK    3  A    between atoms: C7_7  and  C12_14 
REMARK    4  A    between atoms: C8_8  and  O2_12 
REMARK    5  A    between atoms: C12_14  and  C13_15 
REMARK    6  A    between atoms: C13_15  and  C14_16 
REMARK    7  A    between atoms: C14_16  and  C15_17 
ROOT
HETATM    1  C5  UNL     1       0.760   2.329  -0.705  1.00  0.00     0.033 A 
HETATM    2  C6  UNL     1       1.294   1.085  -0.372  1.00  0.00     0.134 A 
HETATM    3  C7  UNL     1       0.446   0.014  -0.088  1.00  0.00     0.082 A 
HETATM    4  C8  UNL     1      -0.937   0.189  -0.137  1.00  0.00     0.101 A 
HETATM    5  C9  UNL     1      -1.472   1.433  -0.469  1.00  0.00     0.051 A 
HETATM    6  C10 UNL     1      -0.623   2.504  -0.753  1.00  0.00     0.131 A 
HETATM    7  O1  UNL     1      -1.143   3.713  -1.076  1.00  0.00    -0.190 OA
HETATM    8  O5  UNL     1       2.638   0.915  -0.325  1.00  0.00    -0.190 OA
ENDROOT
BRANCH   3   9
HETATM    9  C12 UNL     1       0.964  -1.191   0.234  1.00  0.00     0.177 C 
HETATM   10  O4  UNL     1       2.162  -1.342   0.276  1.00  0.00    -0.291 OA
BRANCH   9  11
HETATM   11  C13 UNL     1       0.046  -2.349   0.540  1.00  0.00     0.074 C 
BRANCH  11  12
HETATM   12  C14 UNL     1       0.876  -3.582   0.870  1.00  0.00     0.035 C 
BRANCH  12  13
HETATM   13  C15 UNL     1      -0.034  -4.731   1.175  1.00  0.00    -0.022 A 
HETATM   14  C16 UNL     1       0.500  -5.976   1.507  1.00  0.00    -0.002 A 
HETATM   15  C17 UNL     1      -0.348  -7.046   1.791  1.00  0.00     0.027 A 
HETATM   16  C18 UNL     1      -1.731  -6.871   1.743  1.00  0.00     0.131 A 
HETATM   17  C19 UNL     1      -2.266  -5.627   1.410  1.00  0.00     0.027 A 
HETATM   18  O3  UNL     1      -2.555  -7.911   2.018  1.00  0.00    -0.190 OA
HETATM   19  C20 UNL     1      -1.417  -4.556   1.126  1.00  0.00    -0.002 A 
ENDBRANCH  12  13
ENDBRANCH  11  12
ENDBRANCH   9  11
ENDBRANCH   3   9
BRANCH   4  20
HETATM   20  O2  UNL     1      -1.761  -0.851   0.139  1.00  0.00    -0.328 OA
HETATM   21  C11 UNL     1      -3.151  -0.675   0.090  1.00  0.00     0.181 C 
ENDBRANCH   4  20
BRANCH   1  22
HETATM   22  C4  UNL     1       1.670   3.478  -1.010  1.00  0.00     0.056 C 
BRANCH  22  23
HETATM   23  C3  UNL     1       0.881   4.750  -1.029  1.00  0.00    -0.030 C 
HETATM   24  C2  UNL     1       1.492   5.912  -1.282  1.00  0.00    -0.048 C 
HETATM   25  C1  UNL     1       0.702   7.183  -1.302  1.00  0.00     0.026 C 
HETATM   26  C21 UNL     1       2.965   5.941  -1.547  1.00  0.00     0.026 C 
ENDBRANCH  22  23
ENDBRANCH   1  22
TORSDOF 7
