REMARK  8 active torsions:
REMARK  status: ('A' for Active; 'I' for Inactive)
REMARK    1  A    between atoms: C2_2  and  C3_3 
REMARK    2  A    between atoms: C2_2  and  C14_16 
REMARK    3  A    between atoms: C3_3  and  C4_4 
REMARK    4  A    between atoms: C4_4  and  O1_5 
REMARK    5  A    between atoms: O1_5  and  C5_6 
REMARK    6  A    between atoms: C8_9  and  C11_12 
REMARK    7  A    between atoms: C11_12  and  C12_13 
REMARK    8  A    between atoms: C12_13  and  C13_14 
ROOT
HETATM    1  C5  UNL     1       0.992  -0.713   0.113  1.00  0.00     0.094 A 
HETATM    2  C6  UNL     1       1.527  -1.958   0.445  1.00  0.00     0.024 A 
HETATM    3  C7  UNL     1       0.678  -3.028   0.729  1.00  0.00    -0.002 A 
HETATM    4  C8  UNL     1      -0.705  -2.853   0.680  1.00  0.00    -0.022 A 
HETATM    5  C9  UNL     1      -1.239  -1.609   0.348  1.00  0.00    -0.002 A 
HETATM    6  C10 UNL     1      -0.391  -0.538   0.064  1.00  0.00     0.024 A 
ENDROOT
BRANCH   1   7
HETATM    7  O1  UNL     1       1.816   0.327  -0.163  1.00  0.00    -0.331 OA
BRANCH   7   8
HETATM    8  C4  UNL     1       1.279   1.578  -0.497  1.00  0.00     0.149 C 
BRANCH   8   9
HETATM    9  C3  UNL     1       2.410   2.563  -0.758  1.00  0.00     0.035 C 
BRANCH   9  10
HETATM   10  C2  UNL     1       1.826   3.922  -1.121  1.00  0.00     0.036 C 
HETATM   11  C1  UNL     1       2.296   4.322  -2.514  1.00  0.00     0.003 C 
BRANCH  10  12
HETATM   12  C14 UNL     1       2.294   4.962  -0.111  1.00  0.00     0.182 C 
HETATM   13  O3  UNL     1       1.181   5.527   0.528  1.00  0.00    -0.221 OA
ENDBRANCH  10  12
ENDBRANCH   9  10
ENDBRANCH   8   9
ENDBRANCH   7   8
ENDBRANCH   1   7
BRANCH   4  14
HETATM   14  C11 UNL     1      -1.615  -4.002   0.985  1.00  0.00     0.029 C 
BRANCH  14  15
HETATM   15  C12 UNL     1      -3.064  -3.549   0.862  1.00  0.00     0.040 C 
BRANCH  15  16
HETATM   16  C13 UNL     1      -3.990  -4.717   1.172  1.00  0.00     0.183 C 
HETATM   17  O2  UNL     1      -5.324  -4.300   1.059  1.00  0.00    -0.221 OA
ENDBRANCH  15  16
ENDBRANCH  14  15
ENDBRANCH   4  14
TORSDOF 8
