REMARK  0 active torsions:
REMARK  status: ('A' for Active; 'I' for Inactive)
ROOT
HETATM    1  C3  UNL     1      -3.817   0.085  -0.332  1.00  0.00     0.063 C 
HETATM    2  C4  UNL     1      -3.590  -1.130   0.336  1.00  0.00     0.155 C 
HETATM    3  C5  UNL     1      -2.809  -1.817  -0.776  1.00  0.00     0.033 C 
HETATM    4  C6  UNL     1      -1.373  -1.309  -0.776  1.00  0.00     0.067 C 
HETATM    5  C7  UNL     1      -1.373   0.214  -0.776  1.00  0.00     0.059 C 
HETATM    6  C8  UNL     1      -2.505   0.721   0.107  1.00  0.00     0.129 C 
HETATM    7  O1  UNL     1      -2.616   2.103  -0.102  1.00  0.00    -0.304 OA
HETATM    8  C9  UNL     1      -1.371   2.773  -0.072  1.00  0.00     0.278 C 
HETATM    9  C10 UNL     1      -0.276   1.976   0.594  1.00  0.00     0.129 C 
HETATM   10  C11 UNL     1      -0.042   0.721  -0.238  1.00  0.00     0.020 C 
HETATM   11  C12 UNL     1       0.597  -0.353   0.632  1.00  0.00     0.001 C 
HETATM   12  C13 UNL     1       0.975  -0.162   2.326  1.00  0.00     0.001 C 
HETATM   13  C14 UNL     1       0.511   1.230   2.735  1.00  0.00     0.008 C 
HETATM   14  C15 UNL     1      -0.765   1.581   1.981  1.00  0.00     0.017 C 
HETATM   15  C16 UNL     1       1.520   2.263   2.254  1.00  0.00     0.058 C 
HETATM   16  C17 UNL     1       2.913   1.648   2.201  1.00  0.00     0.008 C 
HETATM   17  C18 UNL     1       1.003   2.777   0.590  1.00  0.00     0.158 C 
HETATM   18  O2  UNL     1       1.507   3.505  -0.232  1.00  0.00    -0.296 OA
HETATM   19  O3  UNL     1      -1.200   3.876  -0.534  1.00  0.00    -0.264 OA
HETATM   20  C19 UNL     1      -1.657   0.582  -2.226  1.00  0.00     0.147 C 
HETATM   21  O4  UNL     1      -1.022  -0.610  -2.946  1.00  0.00    -0.329 OA
HETATM   22  C20 UNL     1      -0.705  -1.678  -2.094  1.00  0.00     0.269 C 
HETATM   23  O5  UNL     1       0.684  -1.790  -1.933  1.00  0.00    -0.190 OA
HETATM   24  C21 UNL     1      -2.815  -3.322  -0.545  1.00  0.00     0.003 C 
HETATM   25  C22 UNL     1      -3.458  -1.506  -2.119  1.00  0.00     0.003 C 
HETATM   26  O6  UNL     1      -2.828  -0.966   1.502  1.00  0.00    -0.223 OA
ENDROOT
TORSDOF 0
