REMARK  4 active torsions:
REMARK  status: ('A' for Active; 'I' for Inactive)
REMARK    1  A    between atoms: C2_2  and  O4_17 
REMARK    2  A    between atoms: C3_3  and  C10_12 
REMARK    3  A    between atoms: C10_12  and  C11_13 
REMARK    4  A    between atoms: C11_13  and  C12_14 
ROOT
HETATM    1  C1  UNL     1       2.178   0.038   0.977  1.00  0.00     0.024 A 
HETATM    2  C2  UNL     1       1.059  -0.386   0.262  1.00  0.00     0.092 A 
HETATM    3  C3  UNL     1      -0.071   0.428   0.194  1.00  0.00     0.023 A 
HETATM    4  C4  UNL     1      -0.086   1.667   0.840  1.00  0.00     0.101 A 
HETATM    5  C5  UNL     1       1.034   2.096   1.558  1.00  0.00     0.023 A 
HETATM    6  C6  UNL     1       2.167   1.276   1.623  1.00  0.00     0.004 A 
HETATM    7  C7  UNL     1       1.013   3.387   2.228  1.00  0.00     0.007 A 
HETATM    8  C8  UNL     1      -0.099   4.120   2.126  1.00  0.00     0.069 A 
HETATM    9  C9  UNL     1      -1.306   3.671   1.359  1.00  0.00     0.300 A 
HETATM   10  O1  UNL     1      -1.237   2.392   0.716  1.00  0.00    -0.273 OA
HETATM   11  O2  UNL     1      -2.296   4.359   1.287  1.00  0.00    -0.259 OA
ENDROOT
BRANCH   3  12
HETATM   12  C10 UNL     1      -1.274  -0.027  -0.573  1.00  0.00     0.038 C 
BRANCH  12  13
HETATM   13  C11 UNL     1      -1.002  -1.399  -1.176  1.00  0.00     0.069 C 
BRANCH  13  14
HETATM   14  C12 UNL     1      -2.214  -1.857  -1.950  1.00  0.00     0.151 C 
HETATM   15  C13 UNL     1      -2.201  -3.195  -2.649  1.00  0.00     0.072 C 
HETATM   16  O3  UNL     1      -3.194  -1.154  -2.010  1.00  0.00    -0.296 OA
ENDBRANCH  13  14
ENDBRANCH  12  13
ENDBRANCH   3  12
BRANCH   2  17
HETATM   17  O4  UNL     1       1.070  -1.586  -0.365  1.00  0.00    -0.328 OA
HETATM   18  C14 UNL     1       2.207  -2.404  -0.296  1.00  0.00     0.181 C 
ENDBRANCH   2  17
TORSDOF 4
