REMARK  2 active torsions:
REMARK  status: ('A' for Active; 'I' for Inactive)
REMARK    1  A    between atoms: C6_6  and  C7_7 
REMARK    2  A    between atoms: C7_7  and  C8_8 
ROOT
HETATM    1  C8  UNL     1      -0.360  -0.582   0.887  1.00  0.00     0.257 C 
HETATM    2  N1  UNL     1      -1.508   0.182   0.480  1.00  0.00     0.335 N 
HETATM    3  C9  UNL     1      -1.036   1.306  -0.283  1.00  0.00     0.257 C 
HETATM    4  C10 UNL     1      -0.290   2.266   0.634  1.00  0.00     0.036 C 
HETATM    5  C11 UNL     1       0.993   1.606   1.123  1.00  0.00     0.004 C 
HETATM    6  C12 UNL     1       0.665   0.253   1.741  1.00  0.00     0.036 C 
HETATM    7  C13 UNL     1      -1.168   2.613   1.829  1.00  0.00     0.024 C 
HETATM    8  C14 UNL     1      -2.562   2.991   1.472  1.00  0.00     0.004 C 
HETATM    9  C15 UNL     1      -2.484   4.101   0.432  1.00  0.00     0.020 C 
HETATM   10  C16 UNL     1      -1.977   3.529  -0.885  1.00  0.00     0.004 C 
HETATM   11  C17 UNL     1      -2.222   2.026  -0.913  1.00  0.00     0.036 C 
HETATM   12  C18 UNL     1      -0.485   3.802  -1.017  1.00  0.00     0.000 C 
HETATM   13  C19 UNL     1      -0.257   5.297  -1.197  1.00  0.00     0.002 C 
HETATM   14  C20 UNL     1      -1.164   6.096  -0.248  1.00  0.00     0.022 C 
HETATM   15  C21 UNL     1      -1.528   5.184   0.916  1.00  0.00     0.077 C 
HETATM   16  N2  UNL     1      -0.336   4.572   1.438  1.00  0.00    -0.368 N 
HETATM   17  C22 UNL     1      -0.523   3.743   2.622  1.00  0.00     0.097 C 
HETATM   18  C23 UNL     1       0.954   4.766   0.832  1.00  0.00     0.121 C 
HETATM   19  C24 UNL     1      -0.574   5.683  -2.636  1.00  0.00     0.000 C 
ENDROOT
BRANCH   1  20
HETATM   20  C7  UNL     1       0.351  -1.091  -0.360  1.00  0.00     0.036 C 
BRANCH  20  21
HETATM   21  C6  UNL     1       0.350  -2.614  -0.360  1.00  0.00     0.004 C 
HETATM   22  C1  UNL     1      -1.087  -3.120  -0.353  1.00  0.00     0.003 C 
HETATM   23  C2  UNL     1      -1.093  -4.646  -0.364  1.00  0.00     0.032 C 
HETATM   24  C3  UNL     1      -0.376  -5.152  -1.608  1.00  0.00     0.025 C 
HETATM   25  C30 UNL     1      -0.379  -5.164   0.878  1.00  0.00     0.150 C 
HETATM   26  C4  UNL     1       1.060  -4.644  -1.608  1.00  0.00     0.083 C 
HETATM   27  C5  UNL     1       1.060  -3.121  -1.608  1.00  0.00     0.021 C 
HETATM   28  N3  UNL     1       1.744  -5.128  -0.424  1.00  0.00    -0.335 N 
HETATM   29  C25 UNL     1       2.496  -2.614  -1.617  1.00  0.00     0.004 C 
HETATM   30  C26 UNL     1       3.263  -3.241  -0.460  1.00  0.00     0.024 C 
HETATM   31  C27 UNL     1       3.140  -4.755  -0.538  1.00  0.00     0.103 C 
HETATM   32  C28 UNL     1       1.173  -5.813   0.615  1.00  0.00     0.131 C 
HETATM   33  C29 UNL     1       1.781  -7.111   1.086  1.00  0.00     0.078 C 
HETATM   34  O1  UNL     1       0.183  -5.379   1.153  1.00  0.00    -0.320 OA
ENDBRANCH  20  21
ENDBRANCH   1  20
TORSDOF 2
