REMARK  2 active torsions:
REMARK  status: ('A' for Active; 'I' for Inactive)
REMARK    1  A    between atoms: C14_14  and  C15_15 
REMARK    2  A    between atoms: C15_15  and  C16_16 
ROOT
HETATM    1  C1  UNL     1      -2.375  -0.575  -1.993  1.00  0.00     0.000 C 
HETATM    2  C2  UNL     1      -3.141  -1.103  -0.839  1.00  0.00     0.000 C 
HETATM    3  C3  UNL     1      -2.247  -2.108  -0.124  1.00  0.00     0.000 C 
HETATM    4  C4  UNL     1      -0.811  -1.600  -0.124  1.00  0.00     0.002 C 
HETATM    5  C5  UNL     1      -0.811  -0.077  -0.124  1.00  0.00     0.023 C 
HETATM    6  C6  UNL     1      -1.369   0.430  -1.447  1.00  0.00     0.002 C 
HETATM    7  C7  UNL     1       0.613   0.430   0.055  1.00  0.00     0.092 C 
HETATM    8  C8  UNL     1       1.476  -0.061  -1.100  1.00  0.00     0.025 C 
HETATM    9  C9  UNL     1       1.348  -1.617  -1.358  1.00  0.00     0.002 C 
HETATM   10  C10 UNL     1      -0.094  -2.108  -1.368  1.00  0.00     0.000 C 
HETATM   11  C11 UNL     1       2.931   0.259  -0.786  1.00  0.00     0.002 C 
HETATM   12  C12 UNL     1       1.178  -0.094   1.369  1.00  0.00     0.030 C 
HETATM   13  C13 UNL     1       1.743   1.147   2.048  1.00  0.00     0.030 C 
HETATM   14  C14 UNL     1       1.496   2.244   0.957  1.00  0.00     0.100 C 
HETATM   15  C17 UNL     1       0.923   3.471   1.652  1.00  0.00     0.030 C 
HETATM   16  O2  UNL     1       0.574   1.830  -0.014  1.00  0.00    -0.363 OA
HETATM   17  C18 UNL     1      -1.679   0.430   1.020  1.00  0.00     0.002 C 
HETATM   18  C19 UNL     1      -2.725  -2.279   1.312  1.00  0.00     0.000 C 
HETATM   19  C20 UNL     1      -2.312  -3.448  -0.845  1.00  0.00     0.000 C 
ENDROOT
BRANCH  14  20
HETATM   20  C15 UNL     1       2.820   2.559   0.272  1.00  0.00     0.099 C 
BRANCH  20  21
HETATM   21  C16 UNL     1       3.167   4.011   0.492  1.00  0.00     0.210 C 
HETATM   22  O1  UNL     1       2.427   4.719   1.133  1.00  0.00    -0.288 OA
ENDBRANCH  20  21
ENDBRANCH  14  20
TORSDOF 2
