REMARK  7 active torsions:
REMARK  status: ('A' for Active; 'I' for Inactive)
REMARK    1  A    between atoms: C3_3  and  O3_22 
REMARK    2  A    between atoms: C5_5  and  C7_7 
REMARK    3  A    between atoms: C7_7  and  C8_8 
REMARK    4  A    between atoms: C8_8  and  C9_9 
REMARK    5  A    between atoms: C9_9  and  C10_10 
REMARK    6  A    between atoms: C10_10  and  C11_11 
REMARK    7  A    between atoms: C13_13  and  O2_18 
ROOT
HETATM    1  C8  UNL     1       0.860   0.319  -0.739  1.00  0.00     0.005 C 
HETATM    2  C19 UNL     1       0.053   0.332  -2.031  1.00  0.00     0.000 C 
ENDROOT
BRANCH   1   3
HETATM    3  C7  UNL     1       1.177  -1.121  -0.355  1.00  0.00     0.026 C 
BRANCH   3   4
HETATM    4  C5  UNL     1       2.662  -1.308  -0.303  1.00  0.00    -0.020 A 
HETATM    5  C4  UNL     1       3.196  -2.552   0.029  1.00  0.00     0.022 A 
HETATM    6  C3  UNL     1       4.580  -2.727   0.078  1.00  0.00     0.119 A 
HETATM    7  C2  UNL     1       5.428  -1.657  -0.206  1.00  0.00     0.153 A 
HETATM    8  C1  UNL     1       4.893  -0.412  -0.539  1.00  0.00     0.029 A 
HETATM    9  O4  UNL     1       6.771  -1.826  -0.159  1.00  0.00    -0.188 OA
HETATM   10  C6  UNL     1       3.510  -0.238  -0.587  1.00  0.00    -0.002 A 
BRANCH   6  11
HETATM   11  O3  UNL     1       5.099  -3.936   0.401  1.00  0.00    -0.326 OA
HETATM   12  C20 UNL     1       4.246  -5.012   0.686  1.00  0.00     0.181 C 
ENDBRANCH   6  11
ENDBRANCH   3   4
ENDBRANCH   1   3
BRANCH   1  13
HETATM   13  C9  UNL     1       0.050   0.974   0.371  1.00  0.00     0.005 C 
HETATM   14  C18 UNL     1       0.856   0.959   1.663  1.00  0.00     0.000 C 
BRANCH  13  15
HETATM   15  C10 UNL     1      -1.249   0.205   0.575  1.00  0.00     0.026 C 
BRANCH  15  16
HETATM   16  C11 UNL     1      -2.412   1.115   0.331  1.00  0.00    -0.020 A 
HETATM   17  C12 UNL     1      -3.714   0.633   0.458  1.00  0.00     0.022 A 
HETATM   18  C13 UNL     1      -4.798   1.481   0.230  1.00  0.00     0.119 A 
HETATM   19  C14 UNL     1      -4.579   2.812  -0.125  1.00  0.00     0.153 A 
HETATM   20  C15 UNL     1      -3.277   3.295  -0.252  1.00  0.00     0.029 A 
HETATM   21  O1  UNL     1      -5.632   3.635  -0.346  1.00  0.00    -0.188 OA
HETATM   22  C16 UNL     1      -2.193   2.446  -0.025  1.00  0.00    -0.002 A 
BRANCH  18  23
HETATM   23  O2  UNL     1      -6.063   1.012   0.354  1.00  0.00    -0.326 OA
HETATM   24  C17 UNL     1      -7.150   1.890   0.245  1.00  0.00     0.181 C 
ENDBRANCH  18  23
ENDBRANCH  15  16
ENDBRANCH  13  15
ENDBRANCH   1  13
TORSDOF 7
