REMARK  2 active torsions:
REMARK  status: ('A' for Active; 'I' for Inactive)
REMARK    1  A    between atoms: C2_2  and  O6_26 
REMARK    2  A    between atoms: O6_26  and  C21_27 
ROOT
HETATM    1  C1  UNL     1      -2.420   0.440   1.645  1.00  0.00     0.063 C 
HETATM    2  C2  UNL     1      -2.390  -1.069   1.700  1.00  0.00     0.127 C 
HETATM    3  C3  UNL     1      -1.669  -1.584   0.461  1.00  0.00     0.026 C 
HETATM    4  C4  UNL     1      -0.233  -1.076   0.461  1.00  0.00     0.007 C 
HETATM    5  C5  UNL     1      -0.233   0.447   0.461  1.00  0.00     0.029 C 
HETATM    6  C6  UNL     1      -0.988   0.955   1.683  1.00  0.00     0.154 C 
HETATM    7  O1  UNL     1      -0.995   2.357   1.677  1.00  0.00    -0.223 OA
HETATM    8  C7  UNL     1       1.202   0.955   0.503  1.00  0.00     0.021 C 
HETATM    9  C8  UNL     1       1.965   0.421  -0.702  1.00  0.00     0.108 C 
HETATM   10  C9  UNL     1       1.899  -1.101  -0.711  1.00  0.00     0.161 C 
HETATM   11  C10 UNL     1       0.485  -1.584  -0.783  1.00  0.00     0.034 C 
HETATM   12  O2  UNL     1       2.601  -1.581  -1.826  1.00  0.00    -0.223 OA
HETATM   13  C11 UNL     1       1.340   0.964  -1.980  1.00  0.00     0.168 C 
HETATM   14  C12 UNL     1       1.924   2.365  -2.109  1.00  0.00     0.095 C 
HETATM   15  C13 UNL     1       1.269   3.236  -1.065  1.00  0.00     0.153 C 
HETATM   16  C14 UNL     1       1.203   2.477   0.471  1.00  0.00     0.065 C 
HETATM   17  O3  UNL     1       0.840   4.343  -1.286  1.00  0.00    -0.296 OA
HETATM   18  C15 UNL     1       3.386   2.192  -1.720  1.00  0.00     0.067 C 
HETATM   19  C16 UNL     1       3.412   0.818  -0.544  1.00  0.00     0.155 C 
HETATM   20  O4  UNL     1       4.298   0.367   0.142  1.00  0.00    -0.296 OA
HETATM   21  C17 UNL     1       4.227   1.858  -2.946  1.00  0.00     0.008 C 
HETATM   22  O5  UNL     1       1.694   0.174  -3.082  1.00  0.00    -0.223 OA
HETATM   23  C18 UNL     1      -0.914   0.955  -0.803  1.00  0.00     0.003 C 
HETATM   24  C19 UNL     1      -1.669  -3.107   0.471  1.00  0.00     0.002 C 
HETATM   25  C20 UNL     1      -2.385  -1.084  -0.787  1.00  0.00     0.002 C 
ENDROOT
BRANCH   2  26
HETATM   26  O6  UNL     1      -1.706  -1.485   2.851  1.00  0.00    -0.304 OA
BRANCH  26  27
HETATM   27  C21 UNL     1      -2.329  -2.244   3.761  1.00  0.00     0.272 C 
HETATM   28  O7  UNL     1      -1.740  -2.603   4.753  1.00  0.00    -0.264 OA
HETATM   29  C22 UNL     1      -3.766  -2.650   3.548  1.00  0.00     0.106 C 
ENDBRANCH  26  27
ENDBRANCH   2  26
TORSDOF 2
