REMARK  6 active torsions:
REMARK  status: ('A' for Active; 'I' for Inactive)
REMARK    1  A    between atoms: C2_2  and  O3_14 
REMARK    2  A    between atoms: C6_6  and  C7_7 
REMARK    3  A    between atoms: O3_14  and  C12_15 
REMARK    4  A    between atoms: C13_17  and  C23_34 
REMARK    5  A    between atoms: C16_20  and  O5_21 
REMARK    6  A    between atoms: O5_21  and  C17_22 
ROOT
HETATM    1  C12 UNL     1       0.045   1.067   1.788  1.00  0.00     0.271 C 
HETATM    2  O4  UNL     1      -0.323   2.415   1.577  1.00  0.00    -0.326 OA
HETATM    3  C13 UNL     1      -1.372   2.812   2.430  1.00  0.00     0.184 C 
HETATM    4  C14 UNL     1      -2.559   1.845   2.350  1.00  0.00     0.215 C 
HETATM    5  C15 UNL     1      -2.172   0.370   2.294  1.00  0.00     0.217 C 
HETATM    6  C16 UNL     1      -1.063   0.165   1.260  1.00  0.00     0.207 C 
HETATM    7  O10 UNL     1      -3.306  -0.377   1.919  1.00  0.00    -0.218 OA
HETATM    8  O11 UNL     1      -3.437   2.009   3.438  1.00  0.00    -0.218 OA
ENDROOT
BRANCH   1   9
HETATM    9  O3  UNL     1       1.364   0.940   1.292  1.00  0.00    -0.304 OA
BRANCH   9  10
HETATM   10  C2  UNL     1       1.822  -0.199   0.664  1.00  0.00     0.099 A 
HETATM   11  C1  UNL     1       2.339   0.007  -0.567  1.00  0.00     0.023 A 
HETATM   12  C6  UNL     1       2.851  -0.952  -1.350  1.00  0.00     0.013 A 
HETATM   13  C5  UNL     1       2.839  -2.198  -0.864  1.00  0.00    -0.002 A 
HETATM   14  C4  UNL     1       2.399  -2.449   0.381  1.00  0.00     0.004 A 
HETATM   15  C3  UNL     1       1.925  -1.458   1.176  1.00  0.00     0.048 A 
HETATM   16  C8  UNL     1       2.491  -3.724   0.804  1.00  0.00     0.000 A 
HETATM   17  C11 UNL     1       1.608  -1.800   2.449  1.00  0.00     0.133 A 
HETATM   18  C10 UNL     1       1.728  -3.074   2.864  1.00  0.00     0.028 A 
HETATM   19  O2  UNL     1       1.199  -0.918   3.394  1.00  0.00    -0.190 OA
HETATM   20  C9  UNL     1       2.147  -4.050   2.053  1.00  0.00     0.002 A 
BRANCH  12  21
HETATM   21  C7  UNL     1       3.419  -0.668  -2.722  1.00  0.00     0.209 C 
HETATM   22  O1  UNL     1       2.739   0.386  -3.387  1.00  0.00    -0.215 OA
ENDBRANCH  12  21
ENDBRANCH   9  10
ENDBRANCH   1   9
BRANCH   6  23
HETATM   23  O5  UNL     1      -1.652   0.618   0.073  1.00  0.00    -0.324 OA
BRANCH  23  24
HETATM   24  C17 UNL     1      -1.080   0.218  -1.144  1.00  0.00     0.270 C 
HETATM   25  O6  UNL     1      -1.882  -0.862  -1.573  1.00  0.00    -0.329 OA
HETATM   26  C18 UNL     1      -1.583  -1.309  -2.870  1.00  0.00     0.151 C 
HETATM   27  C19 UNL     1      -1.696  -0.169  -3.877  1.00  0.00     0.212 C 
HETATM   28  C22 UNL     1      -0.255  -2.067  -2.906  1.00  0.00     0.035 C 
HETATM   29  C20 UNL     1      -0.845   1.015  -3.476  1.00  0.00     0.220 C 
HETATM   30  O9  UNL     1      -1.300  -0.577  -5.163  1.00  0.00    -0.218 OA
HETATM   31  C21 UNL     1      -1.217   1.405  -2.067  1.00  0.00     0.241 C 
HETATM   32  O8  UNL     1      -1.090   2.092  -4.344  1.00  0.00    -0.218 OA
HETATM   33  O7  UNL     1      -0.365   2.433  -1.623  1.00  0.00    -0.215 OA
ENDBRANCH  23  24
ENDBRANCH   6  23
BRANCH   3  34
HETATM   34  C23 UNL     1      -0.859   3.076   3.844  1.00  0.00     0.214 C 
HETATM   35  O12 UNL     1      -1.631   4.092   4.457  1.00  0.00    -0.218 OA
ENDBRANCH   3  34
TORSDOF 6
