REMARK  3 active torsions:
REMARK  status: ('A' for Active; 'I' for Inactive)
REMARK    1  A    between atoms: C10_11  and  C13_15 
REMARK    2  A    between atoms: C11_12  and  O2_13 
REMARK    3  A    between atoms: C13_15  and  C14_16 
ROOT
HETATM    1  C1  UNL     1       2.866   2.027   0.490  1.00  0.00     0.001 C 
HETATM    2  C2  UNL     1       1.544   1.836   0.414  1.00  0.00     0.002 C 
HETATM    3  C3  UNL     1       1.025   0.618   0.164  1.00  0.00     0.044 A 
HETATM    4  C4  UNL     1       1.858  -0.445   0.181  1.00  0.00     0.098 A 
HETATM    5  O1  UNL     1       3.211  -0.328   0.400  1.00  0.00    -0.332 OA
HETATM    6  C5  UNL     1       3.812   0.910   0.156  1.00  0.00     0.117 C 
HETATM    7  C6  UNL     1       5.078   0.995   1.013  1.00  0.00     0.035 C 
HETATM    8  C7  UNL     1       4.172   0.994  -1.333  1.00  0.00     0.035 C 
HETATM    9  C8  UNL     1       1.329  -1.670  -0.031  1.00  0.00     0.045 A 
HETATM   10  C9  UNL     1       0.006  -1.850  -0.217  1.00  0.00     0.103 A 
HETATM   11  C10 UNL     1      -0.801  -0.769  -0.203  1.00  0.00     0.028 A 
HETATM   12  C11 UNL     1      -0.301   0.479  -0.065  1.00  0.00     0.094 A 
HETATM   13  O3  UNL     1      -0.542  -3.093  -0.406  1.00  0.00    -0.273 OA
HETATM   14  C18 UNL     1       0.308  -4.154  -0.417  1.00  0.00     0.300 A 
HETATM   15  C19 UNL     1       1.639  -3.992  -0.230  1.00  0.00     0.069 A 
HETATM   16  C20 UNL     1       2.125  -2.759  -0.036  1.00  0.00     0.009 A 
HETATM   17  O4  UNL     1      -0.123  -5.276  -0.595  1.00  0.00    -0.259 OA
ENDROOT
BRANCH  11  18
HETATM   18  C13 UNL     1      -2.305  -0.956  -0.380  1.00  0.00     0.056 C 
BRANCH  18  19
HETATM   19  C14 UNL     1      -3.092  -0.404   0.784  1.00  0.00    -0.030 C 
HETATM   20  C15 UNL     1      -4.267   0.248   0.720  1.00  0.00    -0.048 C 
HETATM   21  C16 UNL     1      -4.932   0.782   1.967  1.00  0.00     0.026 C 
HETATM   22  C17 UNL     1      -5.031   0.525  -0.553  1.00  0.00     0.026 C 
ENDBRANCH  18  19
ENDBRANCH  11  18
BRANCH  12  23
HETATM   23  O2  UNL     1      -1.154   1.559  -0.027  1.00  0.00    -0.328 OA
HETATM   24  C12 UNL     1      -1.286   2.241  -1.256  1.00  0.00     0.181 C 
ENDBRANCH  12  23
TORSDOF 3
