REMARK  6 active torsions:
REMARK  status: ('A' for Active; 'I' for Inactive)
REMARK    1  A    between atoms: C7_8  and  C30_38 
REMARK    2  A    between atoms: C8_9  and  N3_27 
REMARK    3  A    between atoms: C10_12  and  C14_18 
REMARK    4  A    between atoms: C14_18  and  C15_20 
REMARK       I    between atoms: N3_27  and  C21_28 
REMARK    5  A    between atoms: C21_28  and  C22_30 
REMARK    6  A    between atoms: C23_31  and  C24_32 
ROOT
HETATM    1  C1  UNL     1       0.730  -0.037   3.466  1.00  0.00     0.024 C 
HETATM    2  C2  UNL     1       2.052  -0.252   3.557  1.00  0.00     0.002 C 
HETATM    3  C3  UNL     1       2.904   0.727   3.208  1.00  0.00     0.002 C 
HETATM    4  C4  UNL     1       2.414   1.969   3.094  1.00  0.00     0.002 C 
HETATM    5  C5  UNL     1       1.094   2.179   3.012  1.00  0.00     0.024 C 
HETATM    6  C6  UNL     1       0.234   1.148   3.061  1.00  0.00     0.094 C 
HETATM    7  O1  UNL     1      -1.101   1.353   2.873  1.00  0.00    -0.331 OA
HETATM    8  C7  UNL     1      -1.641   0.817   1.684  1.00  0.00     0.153 C 
HETATM    9  C8  UNL     1      -0.981   1.439   0.415  1.00  0.00     0.214 C 
HETATM   10  C9  UNL     1       0.482   1.051   0.129  1.00  0.00     0.281 C 
HETATM   11  N1  UNL     1       1.139   1.885  -0.740  1.00  0.00    -0.207 NA
HETATM   12  C10 UNL     1       2.588   1.823  -1.006  1.00  0.00     0.154 C 
HETATM   13  C11 UNL     1       3.370   2.123   0.271  1.00  0.00     0.296 C 
HETATM   14  N2  UNL     1       4.331   1.222   0.618  1.00  0.00    -0.205 NA
HETATM   15  C12 UNL     1       4.757   0.672   1.775  1.00  0.00     0.102 C 
HETATM   16  C13 UNL     1       4.201   0.460   2.987  1.00  0.00     0.021 C 
HETATM   17  O2  UNL     1       3.124   3.132   0.884  1.00  0.00    -0.264 OA
HETATM   18  O4  UNL     1       1.010   0.085   0.623  1.00  0.00    -0.268 OA
ENDROOT
BRANCH   9  19
HETATM   19  N3  UNL     1      -1.763   1.087  -0.774  1.00  0.00    -0.224 NA
HETATM   20  C21 UNL     1      -1.745   1.786  -1.941  1.00  0.00     0.276 C 
HETATM   21  O5  UNL     1      -1.195   2.860  -2.021  1.00  0.00    -0.266 OA
BRANCH  20  22
HETATM   22  C22 UNL     1      -2.509   1.304  -2.954  1.00  0.00     0.062 C 
HETATM   23  C23 UNL     1      -3.091   0.104  -3.155  1.00  0.00     0.005 C 
BRANCH  23  24
HETATM   24  C24 UNL     1      -3.026  -1.117  -2.579  1.00  0.00     0.000 A 
HETATM   25  C25 UNL     1      -3.973  -2.025  -2.901  1.00  0.00     0.000 A 
HETATM   26  C26 UNL     1      -3.992  -3.262  -2.379  1.00  0.00     0.000 A 
HETATM   27  C27 UNL     1      -3.038  -3.646  -1.520  1.00  0.00     0.000 A 
HETATM   28  C28 UNL     1      -2.057  -2.785  -1.221  1.00  0.00     0.000 A 
HETATM   29  C29 UNL     1      -2.047  -1.560  -1.767  1.00  0.00     0.000 A 
ENDBRANCH  23  24
ENDBRANCH  20  22
ENDBRANCH   9  19
BRANCH   8  30
HETATM   30  C30 UNL     1      -3.176   1.027   1.800  1.00  0.00     0.030 C 
HETATM   31  C31 UNL     1      -4.028   0.222   0.796  1.00  0.00     0.003 C 
HETATM   32  C32 UNL     1      -3.695   0.661   3.212  1.00  0.00     0.003 C 
ENDBRANCH   8  30
BRANCH  12  33
HETATM   33  C14 UNL     1       3.074   0.717  -1.950  1.00  0.00     0.219 C 
HETATM   34  O3  UNL     1       2.665   1.052  -3.267  1.00  0.00    -0.212 OA
BRANCH  33  35
HETATM   35  C15 UNL     1       2.651  -0.707  -1.651  1.00  0.00     0.014 A 
HETATM   36  C16 UNL     1       1.598  -1.264  -2.277  1.00  0.00    -0.001 A 
HETATM   37  C17 UNL     1       1.256  -2.543  -2.060  1.00  0.00    -0.000 A 
HETATM   38  C18 UNL     1       1.943  -3.287  -1.182  1.00  0.00    -0.000 A 
HETATM   39  C19 UNL     1       2.991  -2.747  -0.544  1.00  0.00    -0.000 A 
HETATM   40  C20 UNL     1       3.346  -1.476  -0.793  1.00  0.00    -0.001 A 
ENDBRANCH  33  35
ENDBRANCH  12  33
TORSDOF 6
