REMARK  5 active torsions:
REMARK  status: ('A' for Active; 'I' for Inactive)
REMARK    1  A    between atoms: C3_3  and  C8_10 
REMARK    2  A    between atoms: C5_5  and  O2_8 
REMARK    3  A    between atoms: C12_14  and  O3_16 
REMARK    4  A    between atoms: C23_28  and  O6_32 
REMARK    5  A    between atoms: C33_40  and  O7_42 
ROOT
HETATM    1  C1  UNL     1      -2.732  -0.994   0.035  1.00  0.00     0.002 A 
HETATM    2  C2  UNL     1      -1.374  -1.000  -0.035  1.00  0.00    -0.022 A 
HETATM    3  C3  UNL     1      -0.661   0.076   0.383  1.00  0.00    -0.002 A 
HETATM    4  C4  UNL     1      -1.357   1.110   0.879  1.00  0.00     0.026 A 
HETATM    5  C5  UNL     1      -2.696   1.188   0.925  1.00  0.00     0.119 A 
HETATM    6  C6  UNL     1      -3.379   0.120   0.463  1.00  0.00     0.149 A 
HETATM    7  O1  UNL     1      -4.737   0.169   0.440  1.00  0.00    -0.188 OA
HETATM    8  C27 UNL     1      -0.642  -2.137  -0.747  1.00  0.00     0.060 C 
HETATM    9  C28 UNL     1      -1.587  -3.042  -1.548  1.00  0.00     0.228 C 
HETATM   10  C29 UNL     1      -2.689  -3.466  -0.566  1.00  0.00     0.060 C 
HETATM   11  C30 UNL     1      -3.576  -2.227  -0.383  1.00  0.00     0.036 C 
HETATM   12  C31 UNL     1      -4.569  -2.692   0.708  1.00  0.00     0.076 C 
HETATM   13  C32 UNL     1      -3.881  -3.050   2.014  1.00  0.00     0.195 C 
HETATM   14  C33 UNL     1      -2.714  -3.748   1.964  1.00  0.00     0.124 C 
HETATM   15  C34 UNL     1      -2.164  -3.980   0.757  1.00  0.00     0.003 C 
HETATM   16  O8  UNL     1      -4.426  -2.772   3.060  1.00  0.00    -0.289 OA
HETATM   17  C36 UNL     1      -4.294  -1.989  -1.734  1.00  0.00     0.040 C 
HETATM   18  C37 UNL     1      -3.484  -2.501  -2.941  1.00  0.00     0.251 C 
HETATM   19  N2  UNL     1      -2.072  -2.280  -2.700  1.00  0.00     0.138 N 
HETATM   20  C38 UNL     1      -1.273  -2.537  -3.888  1.00  0.00     0.285 C 
ENDROOT
BRANCH   3  21
HETATM   21  C8  UNL     1       0.694   0.168   0.377  1.00  0.00    -0.002 A 
HETATM   22  C9  UNL     1       1.396   1.242  -0.065  1.00  0.00    -0.022 A 
HETATM   23  C10 UNL     1       2.754   1.248  -0.006  1.00  0.00     0.002 A 
HETATM   24  C18 UNL     1       0.658   2.374  -0.779  1.00  0.00     0.060 C 
HETATM   25  C11 UNL     1       3.401   0.153   0.457  1.00  0.00     0.149 A 
HETATM   26  C15 UNL     1       3.601   2.454  -0.484  1.00  0.00     0.036 C 
HETATM   27  C12 UNL     1       2.731  -0.918   0.923  1.00  0.00     0.119 A 
HETATM   28  O4  UNL     1       4.761   0.070   0.474  1.00  0.00    -0.188 OA
HETATM   29  C13 UNL     1       1.391  -0.864   0.883  1.00  0.00     0.026 A 
HETATM   30  C16 UNL     1       2.725   3.696  -0.682  1.00  0.00     0.060 C 
HETATM   31  C20 UNL     1       4.281   2.162  -1.843  1.00  0.00     0.040 C 
HETATM   32  C25 UNL     1       4.623   2.938   0.565  1.00  0.00     0.076 C 
HETATM   33  C17 UNL     1       1.592   3.255  -1.620  1.00  0.00     0.228 C 
HETATM   34  C22 UNL     1       2.250   4.237   0.648  1.00  0.00     0.003 C 
HETATM   35  N1  UNL     1       2.039   2.464  -2.769  1.00  0.00     0.138 N 
HETATM   36  C19 UNL     1       3.449   2.651  -3.045  1.00  0.00     0.251 C 
HETATM   37  C21 UNL     1       1.220   2.714  -3.946  1.00  0.00     0.285 C 
HETATM   38  C23 UNL     1       2.803   4.002   1.854  1.00  0.00     0.124 C 
HETATM   39  C24 UNL     1       3.957   3.277   1.888  1.00  0.00     0.195 C 
HETATM   40  O5  UNL     1       4.527   2.972   2.910  1.00  0.00    -0.289 OA
BRANCH  27  41
HETATM   41  O3  UNL     1       3.450  -1.998   1.382  1.00  0.00    -0.326 OA
HETATM   42  C14 UNL     1       2.816  -3.253   1.472  1.00  0.00     0.181 C 
ENDBRANCH  27  41
BRANCH  38  43
HETATM   43  O6  UNL     1       2.156   4.473   2.974  1.00  0.00    -0.326 OA
HETATM   44  C26 UNL     1       2.271   3.763   4.186  1.00  0.00     0.181 C 
ENDBRANCH  38  43
ENDBRANCH   3  21
BRANCH   5  45
HETATM   45  O2  UNL     1      -3.220   2.370   1.405  1.00  0.00    -0.326 OA
HETATM   46  C7  UNL     1      -4.520   2.784   1.060  1.00  0.00     0.181 C 
ENDBRANCH   5  45
BRANCH  14  47
HETATM   47  O7  UNL     1      -2.183  -4.128   3.174  1.00  0.00    -0.326 OA
HETATM   48  C35 UNL     1      -0.816  -4.466   3.224  1.00  0.00     0.181 C 
ENDBRANCH  14  47
TORSDOF 5
