REMARK  7 active torsions:
REMARK  status: ('A' for Active; 'I' for Inactive)
REMARK    1  A    between atoms: C1_1  and  C16_22 
REMARK    2  A    between atoms: C7_9  and  C8_10 
REMARK    3  A    between atoms: C8_10  and  C9_11 
REMARK    4  A    between atoms: C9_11  and  C10_12 
REMARK    5  A    between atoms: C10_12  and  C11_13 
REMARK    6  A    between atoms: C11_13  and  C12_14 
REMARK    7  A    between atoms: C12_14  and  C13_15 
ROOT
HETATM    1  C1  UNL     1      -0.025   1.643   4.595  1.00  0.00     0.188 C 
HETATM    2  C2  UNL     1      -0.988   0.602   3.997  1.00  0.00     0.241 C 
HETATM    3  C3  UNL     1      -0.420  -0.363   2.967  1.00  0.00     0.216 C 
HETATM    4  C4  UNL     1       0.916   0.053   2.408  1.00  0.00     0.237 C 
HETATM    5  C5  UNL     1       1.026   1.550   2.505  1.00  0.00     0.272 C 
HETATM    6  O1  UNL     1       1.150   1.887   3.858  1.00  0.00    -0.326 OA
HETATM    7  O2  UNL     1       2.250   1.810   1.868  1.00  0.00    -0.328 OA
HETATM    8  C6  UNL     1       2.298   0.960   0.740  1.00  0.00     0.152 C 
HETATM    9  C7  UNL     1       1.291  -0.187   0.949  1.00  0.00     0.088 C 
HETATM   10  O4  UNL     1       1.933  -0.496   3.230  1.00  0.00    -0.213 OA
HETATM   11  O5  UNL     1      -1.046  -1.332   2.601  1.00  0.00    -0.290 OA
HETATM   12  O6  UNL     1      -2.064   1.270   3.360  1.00  0.00    -0.213 OA
ENDROOT
BRANCH   9  13
HETATM   13  C8  UNL     1       0.219  -0.167  -0.131  1.00  0.00    -0.039 C 
HETATM   14  C15 UNL     1      -0.987   0.401   0.022  1.00  0.00    -0.009 C 
BRANCH  13  15
HETATM   15  C9  UNL     1       0.656  -0.801  -1.443  1.00  0.00     0.022 C 
BRANCH  15  16
HETATM   16  C10 UNL     1      -0.346  -0.730  -2.607  1.00  0.00     0.004 C 
BRANCH  16  17
HETATM   17  C11 UNL     1       0.228  -1.274  -3.925  1.00  0.00     0.003 C 
BRANCH  17  18
HETATM   18  C12 UNL     1      -0.811  -1.452  -5.054  1.00  0.00     0.033 C 
HETATM   19  C14 UNL     1      -0.093  -1.922  -6.333  1.00  0.00     0.003 C 
BRANCH  18  20
HETATM   20  C13 UNL     1      -1.624  -0.191  -5.357  1.00  0.00     0.182 C 
HETATM   21  O3  UNL     1      -2.638   0.002  -4.390  1.00  0.00    -0.221 OA
ENDBRANCH  18  20
ENDBRANCH  17  18
ENDBRANCH  16  17
ENDBRANCH  15  16
ENDBRANCH  13  15
ENDBRANCH   9  13
BRANCH   1  22
HETATM   22  C16 UNL     1       0.408   1.279   6.011  1.00  0.00     0.215 C 
HETATM   23  O7  UNL     1      -0.710   1.262   6.876  1.00  0.00    -0.218 OA
ENDBRANCH   1  22
TORSDOF 7
