REMARK  17 active torsions:
REMARK  status: ('A' for Active; 'I' for Inactive)
REMARK    1  A    between atoms: C3_3  and  O4_10 
REMARK    2  A    between atoms: C4_5  and  C6_8 
REMARK    3  A    between atoms: O4_10  and  C7_11 
REMARK    4  A    between atoms: C9_13  and  O8_20 
REMARK    5  A    between atoms: C10_15  and  C12_18 
REMARK    6  A    between atoms: O8_20  and  C13_21 
REMARK    7  A    between atoms: C15_23  and  O11_28 
REMARK    8  A    between atoms: O11_28  and  C18_29 
REMARK    9  A    between atoms: C19_30  and  O24_80 
REMARK   10  A    between atoms: C20_31  and  O15_38 
REMARK   11  A    between atoms: C21_33  and  C23_36 
REMARK   12  A    between atoms: O15_38  and  C24_39 
REMARK   13  A    between atoms: C27_42  and  O18_47 
REMARK   14  A    between atoms: C28_44  and  C29_45 
REMARK   15  A    between atoms: O18_47  and  C30_48 
REMARK   16  A    between atoms: O24_80  and  C57_81 
REMARK   17  A    between atoms: C61_85  and  C62_87 
ROOT
HETATM    1  C18 UNL     1      -1.985  -0.410   4.547  1.00  0.00     0.183 C 
HETATM    2  C19 UNL     1      -2.781  -1.630   4.084  1.00  0.00     0.204 C 
HETATM    3  C20 UNL     1      -4.154  -1.270   3.534  1.00  0.00     0.267 C 
HETATM    4  O12 UNL     1      -4.909  -0.502   4.445  1.00  0.00    -0.326 OA
HETATM    5  C21 UNL     1      -4.296   0.636   4.989  1.00  0.00     0.184 C 
HETATM    6  C22 UNL     1      -2.874   0.399   5.483  1.00  0.00     0.211 C 
HETATM    7  O13 UNL     1      -2.939  -0.290   6.714  1.00  0.00    -0.218 OA
ENDROOT
BRANCH   3   8
HETATM    8  O15 UNL     1      -4.072  -0.573   2.303  1.00  0.00    -0.326 OA
BRANCH   8   9
HETATM    9  C24 UNL     1      -5.160  -0.732   1.420  1.00  0.00     0.181 C 
HETATM   10  C25 UNL     1      -5.060  -1.974   0.533  1.00  0.00     0.217 C 
HETATM   11  C26 UNL     1      -4.315  -1.659  -0.746  1.00  0.00     0.241 C 
HETATM   12  O23 UNL     1      -4.442  -3.069   1.166  1.00  0.00    -0.218 OA
HETATM   13  C27 UNL     1      -5.053  -0.623  -1.566  1.00  0.00     0.270 C 
HETATM   14  O22 UNL     1      -4.135  -2.839  -1.488  1.00  0.00    -0.215 OA
HETATM   15  O16 UNL     1      -5.834   0.227  -0.743  1.00  0.00    -0.326 OA
HETATM   16  C28 UNL     1      -5.288   0.521   0.521  1.00  0.00     0.181 C 
BRANCH  13  17
HETATM   17  O18 UNL     1      -4.121   0.178  -2.264  1.00  0.00    -0.332 OA
BRANCH  17  18
HETATM   18  C30 UNL     1      -4.089   0.084  -3.663  1.00  0.00     0.118 C 
HETATM   19  C31 UNL     1      -2.681   0.501  -4.156  1.00  0.00     0.027 C 
HETATM   20  C32 UNL     1      -2.475   2.045  -4.228  1.00  0.00     0.003 C 
HETATM   21  C39 UNL     1      -1.579  -0.278  -3.407  1.00  0.00     0.002 C 
HETATM   22  C33 UNL     1      -3.457   2.576  -5.308  1.00  0.00     0.000 C 
HETATM   23  C36 UNL     1      -0.990   2.382  -4.604  1.00  0.00     0.007 C 
HETATM   24  C56 UNL     1      -2.854   2.712  -2.883  1.00  0.00     0.000 C 
HETATM   25  C34 UNL     1      -4.692   1.681  -5.551  1.00  0.00     0.003 C 
HETATM   26  C35 UNL     1      -5.189   0.943  -4.299  1.00  0.00     0.030 C 
HETATM   27  C37 UNL     1      -0.026   1.638  -3.663  1.00  0.00     0.001 C 
HETATM   28  C43 UNL     1      -0.656   3.883  -4.730  1.00  0.00     0.065 C 
HETATM   29  C38 UNL     1      -0.173   0.126  -3.866  1.00  0.00     0.000 C 
HETATM   30  C40 UNL     1       1.434   2.099  -3.607  1.00  0.00     0.009 C 
HETATM   31  C41 UNL     1       1.608   3.628  -3.473  1.00  0.00     0.054 C 
HETATM   32  C46 UNL     1       2.363   1.742  -4.780  1.00  0.00     0.030 C 
HETATM   33  C42 UNL     1       0.836   4.181  -4.670  1.00  0.00     0.150 C 
HETATM   34  C44 UNL     1       3.153   3.684  -3.503  1.00  0.00     0.039 C 
HETATM   35  C55 UNL     1       1.056   4.201  -2.156  1.00  0.00     0.007 C 
HETATM   36  O19 UNL     1       1.349   4.814  -5.562  1.00  0.00    -0.296 OA
HETATM   37  C45 UNL     1       3.582   2.641  -4.528  1.00  0.00     0.118 C 
HETATM   38  C48 UNL     1       4.006   4.897  -3.881  1.00  0.00     0.054 C 
HETATM   39  O20 UNL     1       3.991   3.339  -5.664  1.00  0.00    -0.337 OA
HETATM   40  C47 UNL     1       4.552   4.577  -5.280  1.00  0.00     0.187 C 
HETATM   41  O21 UNL     1       4.107   5.551  -6.188  1.00  0.00    -0.335 OA
HETATM   42  C53 UNL     1       6.084   4.529  -5.305  1.00  0.00     0.056 C 
HETATM   43  C50 UNL     1       4.353   5.242  -7.540  1.00  0.00     0.145 C 
HETATM   44  C51 UNL     1       5.708   4.566  -7.774  1.00  0.00     0.030 C 
HETATM   45  C52 UNL     1       6.671   4.968  -6.654  1.00  0.00     0.007 C 
HETATM   46  C54 UNL     1       6.280   4.907  -9.159  1.00  0.00     0.003 C 
HETATM   47  C49 UNL     1       3.403   6.286  -3.649  1.00  0.00     0.005 C 
ENDBRANCH  17  18
ENDBRANCH  13  17
BRANCH  16  48
HETATM   48  C29 UNL     1      -4.054   1.407   0.395  1.00  0.00     0.214 C 
HETATM   49  O17 UNL     1      -4.415   2.663  -0.144  1.00  0.00    -0.218 OA
ENDBRANCH  16  48
ENDBRANCH   8   9
ENDBRANCH   3   8
BRANCH   2  50
HETATM   50  O24 UNL     1      -2.889  -2.511   5.175  1.00  0.00    -0.324 OA
BRANCH  50  51
HETATM   51  C57 UNL     1      -2.824  -3.883   4.847  1.00  0.00     0.270 C 
HETATM   52  C58 UNL     1      -1.432  -4.394   4.531  1.00  0.00     0.241 C 
HETATM   53  C59 UNL     1      -0.537  -4.460   5.755  1.00  0.00     0.220 C 
HETATM   54  O29 UNL     1      -1.554  -5.690   3.988  1.00  0.00    -0.215 OA
HETATM   55  C60 UNL     1      -1.267  -5.180   6.874  1.00  0.00     0.215 C 
HETATM   56  O28 UNL     1      -0.177  -3.159   6.154  1.00  0.00    -0.218 OA
HETATM   57  C61 UNL     1      -2.682  -4.666   7.106  1.00  0.00     0.184 C 
HETATM   58  O27 UNL     1      -1.335  -6.552   6.548  1.00  0.00    -0.218 OA
HETATM   59  O25 UNL     1      -3.425  -4.582   5.918  1.00  0.00    -0.326 OA
BRANCH  57  60
HETATM   60  C62 UNL     1      -2.777  -3.402   7.951  1.00  0.00     0.214 C 
HETATM   61  O26 UNL     1      -2.495  -3.702   9.305  1.00  0.00    -0.218 OA
ENDBRANCH  57  60
ENDBRANCH  50  51
ENDBRANCH   2  50
BRANCH   1  62
HETATM   62  O11 UNL     1      -1.511   0.289   3.427  1.00  0.00    -0.326 OA
BRANCH  62  63
HETATM   63  C15 UNL     1      -0.556   1.303   3.695  1.00  0.00     0.270 C 
HETATM   64  C14 UNL     1       0.814   1.011   3.117  1.00  0.00     0.238 C 
HETATM   65  C13 UNL     1       0.857   0.920   1.591  1.00  0.00     0.186 C 
HETATM   66  O30 UNL     1       1.677   2.045   3.547  1.00  0.00    -0.215 OA
HETATM   67  C17 UNL     1      -0.470   1.439   1.057  1.00  0.00     0.211 C 
HETATM   68  C16 UNL     1      -0.844   2.710   1.799  1.00  0.00     0.180 C 
HETATM   69  O10 UNL     1      -0.387   1.715  -0.315  1.00  0.00    -0.218 OA
HETATM   70  O9  UNL     1      -1.080   2.506   3.174  1.00  0.00    -0.326 OA
BRANCH  65  71
HETATM   71  O8  UNL     1       1.144  -0.402   1.210  1.00  0.00    -0.326 OA
BRANCH  71  72
HETATM   72  C9  UNL     1       1.429  -0.585  -0.161  1.00  0.00     0.270 C 
HETATM   73  C8  UNL     1       2.643  -1.450  -0.422  1.00  0.00     0.238 C 
HETATM   74  C7  UNL     1       2.432  -2.935  -0.166  1.00  0.00     0.186 C 
HETATM   75  O31 UNL     1       3.008  -1.287  -1.777  1.00  0.00    -0.215 OA
HETATM   76  C11 UNL     1       1.119  -3.363  -0.805  1.00  0.00     0.211 C 
HETATM   77  C10 UNL     1      -0.044  -2.428  -0.513  1.00  0.00     0.184 C 
HETATM   78  O6  UNL     1       1.296  -3.411  -2.204  1.00  0.00    -0.218 OA
HETATM   79  O5  UNL     1       0.270  -1.087  -0.781  1.00  0.00    -0.326 OA
BRANCH  74  80
HETATM   80  O4  UNL     1       2.470  -3.171   1.214  1.00  0.00    -0.326 OA
BRANCH  80  81
HETATM   81  C3  UNL     1       2.950  -4.440   1.608  1.00  0.00     0.270 C 
HETATM   82  C2  UNL     1       4.426  -4.695   1.381  1.00  0.00     0.241 C 
HETATM   83  C1  UNL     1       5.302  -3.756   2.187  1.00  0.00     0.220 C 
HETATM   84  O32 UNL     1       4.707  -6.015   1.796  1.00  0.00    -0.215 OA
HETATM   85  C5  UNL     1       4.871  -3.792   3.640  1.00  0.00     0.215 C 
HETATM   86  O33 UNL     1       5.219  -2.452   1.668  1.00  0.00    -0.218 OA
HETATM   87  C4  UNL     1       3.365  -3.729   3.858  1.00  0.00     0.184 C 
HETATM   88  O2  UNL     1       5.363  -4.990   4.203  1.00  0.00    -0.218 OA
HETATM   89  O1  UNL     1       2.626  -4.541   2.980  1.00  0.00    -0.326 OA
BRANCH  87  90
HETATM   90  C6  UNL     1       2.796  -2.318   3.934  1.00  0.00     0.214 C 
HETATM   91  O3  UNL     1       1.390  -2.436   3.887  1.00  0.00    -0.218 OA
ENDBRANCH  87  90
ENDBRANCH  80  81
ENDBRANCH  74  80
BRANCH  77  92
HETATM   92  C12 UNL     1      -0.659  -2.646   0.857  1.00  0.00     0.214 C 
HETATM   93  O7  UNL     1      -1.657  -1.676   1.061  1.00  0.00    -0.218 OA
ENDBRANCH  77  92
ENDBRANCH  71  72
ENDBRANCH  65  71
ENDBRANCH  62  63
ENDBRANCH   1  62
BRANCH   5  94
HETATM   94  C23 UNL     1      -4.445   1.861   4.100  1.00  0.00     0.214 C 
HETATM   95  O14 UNL     1      -4.289   3.040   4.865  1.00  0.00    -0.218 OA
ENDBRANCH   5  94
TORSDOF 17
