REMARK  9 active torsions:
REMARK  status: ('A' for Active; 'I' for Inactive)
REMARK    1  A    between atoms: C4_4  and  C7_7 
REMARK    2  A    between atoms: C7_7  and  C8_8 
REMARK    3  A    between atoms: C10_10  and  C24_27 
REMARK    4  A    between atoms: C11_11  and  O3_25 
REMARK    5  A    between atoms: C12_12  and  C14_15 
REMARK    6  A    between atoms: C14_15  and  C15_16 
REMARK    7  A    between atoms: C15_16  and  C16_17 
REMARK    8  A    between atoms: C16_17  and  C17_18 
REMARK    9  A    between atoms: C24_27  and  C25_28 
ROOT
HETATM    1  C8  UNL     1      -1.265   0.401   1.029  1.00  0.00     0.033 C 
HETATM    2  C9  UNL     1      -1.954  -0.751   1.046  1.00  0.00     0.128 C 
HETATM    3  C10 UNL     1      -1.289  -1.915   0.922  1.00  0.00     0.030 C 
HETATM    4  C11 UNL     1       0.068  -1.929   0.875  1.00  0.00     0.097 C 
HETATM    5  C12 UNL     1       0.753  -0.756   0.792  1.00  0.00     0.082 C 
HETATM    6  C13 UNL     1       0.075   0.411   0.896  1.00  0.00     0.134 C 
HETATM    7  O1  UNL     1       0.683   1.629   0.880  1.00  0.00    -0.190 OA
HETATM    8  O5  UNL     1      -3.308  -0.684   1.139  1.00  0.00    -0.191 OA
ENDROOT
BRANCH   5   9
HETATM    9  C14 UNL     1       2.116  -0.767   0.607  1.00  0.00     0.177 C 
HETATM   10  O2  UNL     1       2.770  -1.786   0.574  1.00  0.00    -0.291 OA
BRANCH   9  11
HETATM   11  C15 UNL     1       2.981   0.474   0.367  1.00  0.00     0.074 C 
BRANCH  11  12
HETATM   12  C16 UNL     1       4.451   0.197  -0.007  1.00  0.00     0.035 C 
BRANCH  12  13
HETATM   13  C17 UNL     1       5.317   1.409  -0.313  1.00  0.00    -0.022 A 
HETATM   14  C18 UNL     1       6.640   1.232  -0.491  1.00  0.00    -0.004 A 
HETATM   15  C19 UNL     1       7.455   2.260  -0.771  1.00  0.00    -0.000 A 
HETATM   16  C20 UNL     1       6.955   3.499  -0.881  1.00  0.00    -0.000 A 
HETATM   17  C21 UNL     1       5.640   3.696  -0.707  1.00  0.00    -0.000 A 
HETATM   18  C22 UNL     1       4.833   2.660  -0.424  1.00  0.00    -0.004 A 
ENDBRANCH  12  13
ENDBRANCH  11  12
ENDBRANCH   9  11
ENDBRANCH   5   9
BRANCH   4  19
HETATM   19  O3  UNL     1       0.689  -3.153   0.735  1.00  0.00    -0.328 OA
HETATM   20  C23 UNL     1       1.135  -3.722   1.950  1.00  0.00     0.181 C 
ENDBRANCH   4  19
BRANCH   3  21
HETATM   21  C24 UNL     1      -2.029  -3.250   0.819  1.00  0.00     0.059 C 
BRANCH  21  22
HETATM   22  C25 UNL     1      -3.482  -3.310   0.385  1.00  0.00     0.008 A 
HETATM   23  C26 UNL     1      -4.347  -4.028   1.127  1.00  0.00    -0.002 A 
HETATM   24  C27 UNL     1      -5.647  -4.113   0.811  1.00  0.00    -0.000 A 
HETATM   25  C28 UNL     1      -6.103  -3.465  -0.267  1.00  0.00     0.002 A 
HETATM   26  C29 UNL     1      -5.248  -2.746  -1.008  1.00  0.00     0.027 A 
HETATM   27  C30 UNL     1      -3.938  -2.666  -0.711  1.00  0.00     0.127 A 
HETATM   28  O4  UNL     1      -3.137  -1.886  -1.484  1.00  0.00    -0.191 OA
ENDBRANCH  21  22
ENDBRANCH   3  21
BRANCH   1  29
HETATM   29  C7  UNL     1      -2.022   1.723   1.080  1.00  0.00     0.059 C 
BRANCH  29  30
HETATM   30  C4  UNL     1      -1.769   2.509  -0.193  1.00  0.00     0.008 A 
HETATM   31  C3  UNL     1      -1.858   1.922  -1.405  1.00  0.00     0.127 A 
HETATM   32  C2  UNL     1      -1.580   2.663  -2.493  1.00  0.00     0.027 A 
HETATM   33  O6  UNL     1      -2.239   0.623  -1.556  1.00  0.00    -0.191 OA
HETATM   34  C1  UNL     1      -1.208   3.947  -2.401  1.00  0.00     0.002 A 
HETATM   35  C6  UNL     1      -1.117   4.521  -1.194  1.00  0.00    -0.000 A 
HETATM   36  C5  UNL     1      -1.399   3.799  -0.101  1.00  0.00    -0.002 A 
ENDBRANCH  29  30
ENDBRANCH   1  29
TORSDOF 9
