REMARK  1 active torsions:
REMARK  status: ('A' for Active; 'I' for Inactive)
REMARK    1  A    between atoms: C12_14  and  C13_16 
ROOT
HETATM    1  C1  UNL     1       4.087   1.529   1.885  1.00  0.00     0.099 C 
HETATM    2  C2  UNL     1       4.446   0.256   2.652  1.00  0.00     0.033 C 
HETATM    3  C3  UNL     1       3.379  -0.821   2.446  1.00  0.00     0.033 C 
HETATM    4  C4  UNL     1       1.984  -0.234   2.502  1.00  0.00     0.026 A 
HETATM    5  C5  UNL     1       1.834   1.103   2.465  1.00  0.00     0.094 A 
HETATM    6  O1  UNL     1       2.864   2.001   2.349  1.00  0.00    -0.336 OA
HETATM    7  C6  UNL     1       0.574   1.563   2.456  1.00  0.00     0.048 A 
HETATM    8  C7  UNL     1      -0.518   0.785   2.538  1.00  0.00     0.101 A 
HETATM    9  C8  UNL     1      -0.328  -0.552   2.602  1.00  0.00     0.082 A 
HETATM   10  C9  UNL     1       0.924  -1.068   2.587  1.00  0.00     0.134 A 
HETATM   11  O2  UNL     1       1.185  -2.409   2.598  1.00  0.00    -0.190 OA
HETATM   12  C10 UNL     1      -1.428  -1.354   2.681  1.00  0.00     0.180 C 
HETATM   13  C11 UNL     1      -2.800  -0.704   2.693  1.00  0.00     0.104 C 
HETATM   14  C12 UNL     1      -2.805   0.637   1.978  1.00  0.00     0.151 C 
HETATM   15  O3  UNL     1      -1.739   1.405   2.469  1.00  0.00    -0.328 OA
HETATM   16  O5  UNL     1      -1.409  -2.561   2.760  1.00  0.00    -0.291 OA
HETATM   17  C24 UNL     1       5.134   2.613   2.180  1.00  0.00     0.030 C 
HETATM   18  C25 UNL     1       4.012   1.314   0.368  1.00  0.00     0.030 C 
ENDROOT
BRANCH  14  19
HETATM   19  C13 UNL     1      -2.827   0.519   0.457  1.00  0.00     0.005 A 
HETATM   20  C14 UNL     1      -1.800   0.031  -0.260  1.00  0.00    -0.004 A 
HETATM   21  C15 UNL     1      -1.836  -0.099  -1.597  1.00  0.00    -0.000 A 
HETATM   22  C16 UNL     1      -2.929   0.279  -2.291  1.00  0.00     0.090 A 
HETATM   23  C21 UNL     1      -0.633  -0.674  -2.307  1.00  0.00     0.031 C 
HETATM   24  C17 UNL     1      -3.964   0.754  -1.574  1.00  0.00     0.024 A 
HETATM   25  O4  UNL     1      -3.054   0.141  -3.649  1.00  0.00    -0.336 OA
HETATM   26  C18 UNL     1      -3.919   0.879  -0.240  1.00  0.00     0.000 A 
HETATM   27  C19 UNL     1      -2.194  -0.754  -4.282  1.00  0.00     0.099 C 
HETATM   28  C20 UNL     1      -0.761  -0.481  -3.820  1.00  0.00     0.033 C 
HETATM   29  C22 UNL     1      -2.300  -0.498  -5.792  1.00  0.00     0.030 C 
HETATM   30  C23 UNL     1      -2.646  -2.193  -3.995  1.00  0.00     0.030 C 
ENDBRANCH  14  19
TORSDOF 1
