REMARK  6 active torsions:
REMARK  status: ('A' for Active; 'I' for Inactive)
REMARK    1  A    between atoms: C2_2  and  C22_28 
REMARK    2  A    between atoms: C6_6  and  C7_7 
REMARK    3  A    between atoms: C7_7  and  C8_8 
REMARK    4  A    between atoms: C12_13  and  C15_18 
REMARK    5  A    between atoms: C17_20  and  O5_25 
REMARK    6  A    between atoms: C22_28  and  C23_29 
ROOT
HETATM    1  C1  UNL     1      -1.528   1.759  -0.253  1.00  0.00     0.128 A 
HETATM    2  C2  UNL     1      -1.083   2.965   0.156  1.00  0.00     0.033 A 
HETATM    3  C3  UNL     1       0.232   3.160   0.398  1.00  0.00     0.134 A 
HETATM    4  C4  UNL     1       1.093   2.129   0.253  1.00  0.00     0.089 A 
HETATM    5  C5  UNL     1       0.658   0.920  -0.136  1.00  0.00     0.103 A 
HETATM    6  C6  UNL     1      -0.653   0.746  -0.401  1.00  0.00     0.030 A 
HETATM    7  O1  UNL     1       1.501  -0.136  -0.297  1.00  0.00    -0.305 OA
HETATM    8  C12 UNL     1       2.830   0.005  -0.008  1.00  0.00     0.128 A 
HETATM    9  C13 UNL     1       3.285   1.228   0.348  1.00  0.00     0.192 A 
HETATM   10  C14 UNL     1       2.427   2.281   0.488  1.00  0.00     0.227 A 
HETATM   11  O2  UNL     1       2.905   3.345   0.819  1.00  0.00    -0.284 OA
HETATM   12  O3  UNL     1       4.599   1.550   0.516  1.00  0.00    -0.185 OA
HETATM   13  O6  UNL     1       0.666   4.402   0.762  1.00  0.00    -0.190 OA
HETATM   14  O7  UNL     1      -2.851   1.560  -0.513  1.00  0.00    -0.191 OA
ENDROOT
BRANCH   8  15
HETATM   15  C15 UNL     1       3.602  -1.111  -0.132  1.00  0.00     0.027 A 
HETATM   16  C16 UNL     1       3.035  -2.239  -0.619  1.00  0.00     0.028 A 
HETATM   17  C17 UNL     1       3.662  -3.422  -0.771  1.00  0.00     0.119 A 
HETATM   18  C18 UNL     1       4.978  -3.484  -0.505  1.00  0.00     0.153 A 
HETATM   19  C19 UNL     1       5.572  -2.400   0.012  1.00  0.00     0.029 A 
HETATM   20  O4  UNL     1       5.664  -4.639  -0.721  1.00  0.00    -0.188 OA
HETATM   21  C20 UNL     1       4.897  -1.259   0.212  1.00  0.00     0.004 A 
BRANCH  17  22
HETATM   22  O5  UNL     1       3.024  -4.505  -1.322  1.00  0.00    -0.326 OA
HETATM   23  C21 UNL     1       2.335  -5.290  -0.376  1.00  0.00     0.181 C 
ENDBRANCH  17  22
ENDBRANCH   8  15
BRANCH   6  24
HETATM   24  C7  UNL     1      -1.109  -0.627  -0.876  1.00  0.00     0.056 C 
BRANCH  24  25
HETATM   25  C8  UNL     1      -1.207  -1.594   0.275  1.00  0.00    -0.030 C 
HETATM   26  C9  UNL     1      -1.291  -2.932   0.167  1.00  0.00    -0.048 C 
HETATM   27  C10 UNL     1      -1.373  -3.815   1.391  1.00  0.00     0.026 C 
HETATM   28  C11 UNL     1      -1.320  -3.673  -1.149  1.00  0.00     0.026 C 
ENDBRANCH  24  25
ENDBRANCH   6  24
BRANCH   2  29
HETATM   29  C22 UNL     1      -2.064   4.124   0.305  1.00  0.00     0.056 C 
BRANCH  29  30
HETATM   30  C23 UNL     1      -3.406   3.776   0.901  1.00  0.00    -0.030 C 
HETATM   31  C24 UNL     1      -4.610   4.223   0.499  1.00  0.00    -0.048 C 
HETATM   32  C25 UNL     1      -5.877   3.777   1.192  1.00  0.00     0.026 C 
HETATM   33  C26 UNL     1      -4.841   5.186  -0.642  1.00  0.00     0.026 C 
ENDBRANCH  29  30
ENDBRANCH   2  29
TORSDOF 6
