REMARK  4 active torsions:
REMARK  status: ('A' for Active; 'I' for Inactive)
REMARK    1  A    between atoms: C5_5  and  C7_7 
REMARK    2  A    between atoms: C13_15  and  C21_25 
REMARK    3  A    between atoms: C17_19  and  C18_21 
REMARK    4  A    between atoms: C21_25  and  C22_26 
ROOT
HETATM    1  C7  UNL     1       3.586   0.754   1.250  1.00  0.00     0.151 C 
HETATM    2  O1  UNL     1       2.266   1.111   1.556  1.00  0.00    -0.329 OA
HETATM    3  C8  UNL     1       1.281   0.239   1.169  1.00  0.00     0.097 A 
HETATM    4  C9  UNL     1       1.453  -1.070   0.867  1.00  0.00     0.082 A 
HETATM    5  C10 UNL     1       2.699  -1.598   1.039  1.00  0.00     0.180 C 
HETATM    6  C11 UNL     1       3.793  -0.709   1.601  1.00  0.00     0.104 C 
HETATM    7  O2  UNL     1       3.011  -2.745   0.815  1.00  0.00    -0.291 OA
HETATM    8  C12 UNL     1       0.423  -1.838   0.429  1.00  0.00     0.134 A 
HETATM    9  C13 UNL     1      -0.811  -1.298   0.294  1.00  0.00     0.030 A 
HETATM   10  C14 UNL     1      -0.984  -0.005   0.599  1.00  0.00     0.090 A 
HETATM   11  C15 UNL     1       0.044   0.735   1.014  1.00  0.00     0.025 A 
HETATM   12  C16 UNL     1      -0.385   2.150   1.268  1.00  0.00     0.063 A 
HETATM   13  C17 UNL     1      -1.870   1.994   0.879  1.00  0.00     0.153 A 
HETATM   14  O3  UNL     1      -2.040   0.619   0.523  1.00  0.00    -0.331 OA
HETATM   15  O5  UNL     1       0.559  -3.153   0.083  1.00  0.00    -0.190 OA
ENDROOT
BRANCH   1  16
HETATM   16  C5  UNL     1       4.014   1.076  -0.178  1.00  0.00     0.008 A 
HETATM   17  C4  UNL     1       5.182   1.703  -0.402  1.00  0.00     0.000 A 
HETATM   18  C3  UNL     1       5.598   1.970  -1.648  1.00  0.00     0.029 A 
HETATM   19  C2  UNL     1       4.869   1.616  -2.719  1.00  0.00     0.156 A 
HETATM   20  C1  UNL     1       3.697   0.986  -2.519  1.00  0.00     0.156 A 
HETATM   21  O6  UNL     1       5.317   1.889  -3.975  1.00  0.00    -0.188 OA
HETATM   22  C6  UNL     1       3.295   0.733  -1.261  1.00  0.00     0.028 A 
HETATM   23  O7  UNL     1       2.923   0.602  -3.571  1.00  0.00    -0.188 OA
ENDBRANCH   1  16
BRANCH   9  24
HETATM   24  C21 UNL     1      -1.982  -2.140  -0.186  1.00  0.00     0.056 C 
BRANCH  24  25
HETATM   25  C22 UNL     1      -2.423  -3.119   0.874  1.00  0.00    -0.030 C 
HETATM   26  C23 UNL     1      -3.594  -3.779   0.910  1.00  0.00    -0.048 C 
HETATM   27  C24 UNL     1      -3.895  -4.776   2.006  1.00  0.00     0.026 C 
HETATM   28  C25 UNL     1      -4.695  -3.620  -0.110  1.00  0.00     0.026 C 
ENDBRANCH  24  25
ENDBRANCH   9  24
BRANCH  13  29
HETATM   29  C18 UNL     1      -2.340   2.916  -0.254  1.00  0.00     0.152 C 
HETATM   30  C19 UNL     1      -2.338   4.380   0.195  1.00  0.00     0.036 C 
HETATM   31  C20 UNL     1      -3.736   2.527  -0.748  1.00  0.00     0.036 C 
HETATM   32  O4  UNL     1      -1.455   2.784  -1.337  1.00  0.00    -0.224 OA
ENDBRANCH  13  29
TORSDOF 4
