REMARK  1 active torsions:
REMARK  status: ('A' for Active; 'I' for Inactive)
REMARK    1  A    between atoms: C4_4  and  O2_8 
ROOT
HETATM    1  C1  UNL     1      -0.455   0.499  -0.035  1.00  0.00     0.058 A 
HETATM    2  C2  UNL     1      -0.429  -0.843   0.041  1.00  0.00     0.008 A 
HETATM    3  C3  UNL     1       0.764  -1.458   0.118  1.00  0.00     0.026 A 
HETATM    4  C4  UNL     1       1.949  -0.814   0.128  1.00  0.00     0.119 A 
HETATM    5  C5  UNL     1       1.909   0.535   0.045  1.00  0.00     0.153 A 
HETATM    6  C6  UNL     1       0.717   1.156  -0.031  1.00  0.00     0.034 A 
HETATM    7  O1  UNL     1       3.022   1.319   0.042  1.00  0.00    -0.188 OA
HETATM    8  C8  UNL     1      -1.570  -1.552   0.040  1.00  0.00     0.019 A 
HETATM    9  C9  UNL     1      -2.739  -0.905  -0.043  1.00  0.00     0.079 A 
HETATM   10  N1  UNL     1      -2.786   0.440  -0.124  1.00  0.00    -0.292 N 
HETATM   11  C10 UNL     1      -1.632   1.183  -0.117  1.00  0.00     0.261 A 
HETATM   12  O3  UNL     1      -1.664   2.390  -0.184  1.00  0.00    -0.267 OA
HETATM   13  C11 UNL     1      -4.066   1.143  -0.219  1.00  0.00     0.134 C 
ENDROOT
BRANCH   4  14
HETATM   14  O2  UNL     1       3.074  -1.606   0.203  1.00  0.00    -0.326 OA
HETATM   15  C7  UNL     1       4.361  -1.051   0.089  1.00  0.00     0.181 C 
ENDBRANCH   4  14
TORSDOF 1
