REMARK  8 active torsions:
REMARK  status: ('A' for Active; 'I' for Inactive)
REMARK    1  A    between atoms: C5_5  and  C7_7 
REMARK    2  A    between atoms: C8_8  and  C9_9 
REMARK    3  A    between atoms: C9_9  and  O1_10 
REMARK    4  A    between atoms: O1_10  and  C10_11 
REMARK    5  A    between atoms: C10_11  and  C11_12 
REMARK    6  A    between atoms: C15_16  and  O3_18 
REMARK    7  A    between atoms: O3_18  and  C16_19 
REMARK    8  A    between atoms: C16_19  and  C17_20 
ROOT
HETATM    1  C11 UNL     1       0.369  -1.099  -2.793  1.00  0.00     0.181 C 
HETATM    2  C12 UNL     1      -0.520  -2.321  -2.979  1.00  0.00     0.215 C 
HETATM    3  C13 UNL     1      -0.339  -3.384  -1.908  1.00  0.00     0.220 C 
HETATM    4  C14 UNL     1       1.136  -3.665  -1.706  1.00  0.00     0.241 C 
HETATM    5  C15 UNL     1       1.910  -2.386  -1.473  1.00  0.00     0.270 C 
HETATM    6  O2  UNL     1       1.703  -1.447  -2.510  1.00  0.00    -0.326 OA
HETATM    7  O5  UNL     1       1.645  -4.302  -2.856  1.00  0.00    -0.215 OA
HETATM    8  O6  UNL     1      -0.909  -2.989  -0.680  1.00  0.00    -0.218 OA
HETATM    9  O7  UNL     1      -0.221  -2.904  -4.231  1.00  0.00    -0.218 OA
ENDROOT
BRANCH   1  10
HETATM   10  C10 UNL     1      -0.161  -0.091  -1.782  1.00  0.00     0.184 C 
BRANCH  10  11
HETATM   11  O1  UNL     1      -1.089   0.827  -2.318  1.00  0.00    -0.296 OA
BRANCH  11  12
HETATM   12  C9  UNL     1      -1.701   1.552  -1.323  1.00  0.00     0.296 C 
HETATM   13  O8  UNL     1      -2.085   0.963  -0.335  1.00  0.00    -0.259 OA
BRANCH  12  14
HETATM   14  C8  UNL     1      -1.830   2.906  -1.390  1.00  0.00     0.068 C 
HETATM   15  C7  UNL     1      -2.129   3.757  -0.388  1.00  0.00     0.005 C 
BRANCH  15  16
HETATM   16  C5  UNL     1      -2.091   3.587   0.953  1.00  0.00     0.002 A 
HETATM   17  C4  UNL     1      -2.653   4.495   1.774  1.00  0.00     0.002 A 
HETATM   18  C3  UNL     1      -2.618   4.344   3.107  1.00  0.00     0.029 A 
HETATM   19  C2  UNL     1      -1.994   3.306   3.689  1.00  0.00     0.156 A 
HETATM   20  C1  UNL     1      -1.355   2.426   2.898  1.00  0.00     0.156 A 
HETATM   21  O9  UNL     1      -1.980   3.175   5.043  1.00  0.00    -0.188 OA
HETATM   22  C6  UNL     1      -1.407   2.605   1.569  1.00  0.00     0.029 A 
HETATM   23  O10 UNL     1      -0.680   1.351   3.393  1.00  0.00    -0.188 OA
ENDBRANCH  15  16
ENDBRANCH  12  14
ENDBRANCH  11  12
ENDBRANCH  10  11
ENDBRANCH   1  10
BRANCH   5  24
HETATM   24  O3  UNL     1       1.545  -1.803  -0.239  1.00  0.00    -0.329 OA
BRANCH  24  25
HETATM   25  C16 UNL     1       2.556  -1.062   0.391  1.00  0.00     0.151 C 
HETATM   26  C18 UNL     1       3.462  -1.989   1.205  1.00  0.00     0.035 C 
BRANCH  25  27
HETATM   27  C17 UNL     1       1.936   0.012   1.284  1.00  0.00     0.212 C 
HETATM   28  O4  UNL     1       1.038  -0.545   2.223  1.00  0.00    -0.218 OA
ENDBRANCH  25  27
ENDBRANCH  24  25
ENDBRANCH   5  24
TORSDOF 8
