REMARK  0 active torsions:
REMARK  status: ('A' for Active; 'I' for Inactive)
ROOT
HETATM    1  C1  UNL     1       3.963   0.081  -0.846  1.00  0.00    -0.000 A 
HETATM    2  C2  UNL     1       3.778   1.344  -0.438  1.00  0.00    -0.000 A 
HETATM    3  C3  UNL     1       2.555   1.741  -0.058  1.00  0.00    -0.004 A 
HETATM    4  C4  UNL     1       1.506   0.897  -0.077  1.00  0.00    -0.021 A 
HETATM    5  C5  UNL     1       1.693  -0.370  -0.487  1.00  0.00    -0.021 A 
HETATM    6  C6  UNL     1       2.922  -0.764  -0.868  1.00  0.00    -0.004 A 
HETATM    7  C7  UNL     1       0.564  -1.367  -0.534  1.00  0.00     0.055 A 
HETATM    8  C8  UNL     1      -0.788  -0.869  -0.080  1.00  0.00     0.023 A 
HETATM    9  C9  UNL     1      -0.971   0.398   0.329  1.00  0.00     0.023 A 
HETATM   10  C10 UNL     1       0.156   1.402   0.361  1.00  0.00     0.055 A 
HETATM   11  C11 UNL     1      -2.199   0.815   0.729  1.00  0.00     0.219 A 
HETATM   12  C12 UNL     1      -3.230  -0.064   0.709  1.00  0.00     0.198 A 
HETATM   13  C13 UNL     1      -3.050  -1.327   0.301  1.00  0.00     0.198 A 
HETATM   14  C14 UNL     1      -1.824  -1.750  -0.100  1.00  0.00     0.219 A 
HETATM   15  O1  UNL     1      -1.660  -2.893  -0.469  1.00  0.00    -0.285 OA
HETATM   16  O2  UNL     1      -4.106  -2.187   0.291  1.00  0.00    -0.184 OA
HETATM   17  O3  UNL     1      -4.448   0.385   1.114  1.00  0.00    -0.184 OA
HETATM   18  O4  UNL     1      -2.434   1.941   1.107  1.00  0.00    -0.285 OA
ENDROOT
TORSDOF 0
