REMARK  1 active torsions:
REMARK  status: ('A' for Active; 'I' for Inactive)
REMARK    1  A    between atoms: C7_9  and  C10_13 
ROOT
HETATM    1  C1  UNL     1      -4.056  -0.181  -0.261  1.00  0.00     0.185 A 
HETATM    2  C2  UNL     1      -4.047  -1.524  -0.268  1.00  0.00     0.183 A 
HETATM    3  C3  UNL     1      -2.880  -2.189  -0.232  1.00  0.00     0.156 A 
HETATM    4  C4  UNL     1      -1.720  -1.508  -0.186  1.00  0.00     0.032 A 
HETATM    5  C5  UNL     1      -1.715  -0.157  -0.188  1.00  0.00     0.120 A 
HETATM    6  C6  UNL     1      -2.895   0.495  -0.216  1.00  0.00     0.180 A 
HETATM    7  O1  UNL     1      -2.915   1.857  -0.197  1.00  0.00    -0.186 OA
HETATM    8  O2  UNL     1      -0.565   0.588  -0.099  1.00  0.00    -0.324 OA
HETATM    9  C7  UNL     1       0.551  -0.082   0.426  1.00  0.00     0.174 C 
HETATM   10  C8  UNL     1       0.771  -1.348  -0.374  1.00  0.00     0.188 C 
HETATM   11  C9  UNL     1      -0.413  -2.275  -0.137  1.00  0.00     0.066 C 
HETATM   12  O3  UNL     1       1.972  -1.946   0.048  1.00  0.00    -0.220 OA
HETATM   13  O6  UNL     1      -2.901  -3.550  -0.226  1.00  0.00    -0.188 OA
HETATM   14  O7  UNL     1      -5.212  -2.226  -0.304  1.00  0.00    -0.186 OA
HETATM   15  O8  UNL     1      -5.237   0.496  -0.291  1.00  0.00    -0.186 OA
ENDROOT
BRANCH   9  16
HETATM   16  C10 UNL     1       1.780   0.807   0.414  1.00  0.00     0.010 A 
HETATM   17  C11 UNL     1       2.396   1.150   1.559  1.00  0.00     0.000 A 
HETATM   18  C12 UNL     1       3.485   1.931   1.541  1.00  0.00     0.029 A 
HETATM   19  C13 UNL     1       3.996   2.383   0.385  1.00  0.00     0.156 A 
HETATM   20  C14 UNL     1       3.397   2.041  -0.770  1.00  0.00     0.156 A 
HETATM   21  O5  UNL     1       5.100   3.176   0.373  1.00  0.00    -0.188 OA
HETATM   22  C15 UNL     1       2.301   1.264  -0.737  1.00  0.00     0.028 A 
HETATM   23  O4  UNL     1       3.909   2.495  -1.945  1.00  0.00    -0.188 OA
ENDBRANCH   9  16
TORSDOF 1
