REMARK  5 active torsions:
REMARK  status: ('A' for Active; 'I' for Inactive)
REMARK    1  A    between atoms: C3_3  and  O3_9 
REMARK    2  A    between atoms: O3_9  and  C7_10 
REMARK    3  A    between atoms: C7_10  and  C8_11 
REMARK    4  A    between atoms: C9_13  and  C13_20 
REMARK    5  A    between atoms: C21_29  and  C22_31 
ROOT
HETATM    1  C8  UNL     1      -0.501   2.664   0.911  1.00  0.00     0.178 C 
HETATM    2  O4  UNL     1       0.022   1.356   0.867  1.00  0.00    -0.347 OA
HETATM    3  C9  UNL     1       1.400   1.323   0.563  1.00  0.00     0.175 C 
HETATM    4  C10 UNL     1       2.215   2.124   1.571  1.00  0.00     0.216 C 
HETATM    5  C11 UNL     1       1.707   3.545   1.634  1.00  0.00     0.218 C 
HETATM    6  C12 UNL     1       0.231   3.485   1.967  1.00  0.00     0.214 C 
HETATM    7  O5  UNL     1      -0.239   4.811   2.006  1.00  0.00    -0.218 OA
HETATM    8  O6  UNL     1       2.384   4.253   2.640  1.00  0.00    -0.218 OA
HETATM    9  O7  UNL     1       3.561   2.123   1.169  1.00  0.00    -0.218 OA
ENDROOT
BRANCH   3  10
HETATM   10  C13 UNL     1       1.932  -0.108   0.422  1.00  0.00     0.058 A 
HETATM   11  C14 UNL     1       1.984  -0.908   1.507  1.00  0.00     0.133 A 
HETATM   12  C15 UNL     1       2.495  -2.139   1.375  1.00  0.00     0.052 A 
HETATM   13  O12 UNL     1       1.527  -0.532   2.732  1.00  0.00    -0.190 OA
HETATM   14  C16 UNL     1       2.964  -2.625   0.217  1.00  0.00     0.107 A 
HETATM   15  C17 UNL     1       2.883  -1.827  -0.863  1.00  0.00     0.087 A 
HETATM   16  O9  UNL     1       3.478  -3.890   0.199  1.00  0.00    -0.307 OA
HETATM   17  C18 UNL     1       2.375  -0.575  -0.770  1.00  0.00     0.136 A 
HETATM   18  C19 UNL     1       3.335  -2.324  -2.050  1.00  0.00     0.202 A 
HETATM   19  O8  UNL     1       2.277   0.216  -1.877  1.00  0.00    -0.190 OA
HETATM   20  C20 UNL     1       3.837  -3.587  -2.083  1.00  0.00     0.067 A 
HETATM   21  O11 UNL     1       3.322  -1.708  -3.094  1.00  0.00    -0.286 OA
HETATM   22  C21 UNL     1       3.922  -4.380  -0.997  1.00  0.00     0.103 A 
BRANCH  22  23
HETATM   23  C22 UNL     1       4.440  -5.635  -1.048  1.00  0.00     0.023 A 
HETATM   24  C23 UNL     1       4.904  -6.249  -2.156  1.00  0.00     0.004 A 
HETATM   25  C24 UNL     1       5.409  -7.494  -2.129  1.00  0.00     0.028 A 
HETATM   26  C25 UNL     1       5.481  -8.200  -0.991  1.00  0.00     0.131 A 
HETATM   27  C26 UNL     1       5.023  -7.604   0.119  1.00  0.00     0.028 A 
HETATM   28  O10 UNL     1       5.995  -9.459  -0.957  1.00  0.00    -0.190 OA
HETATM   29  C27 UNL     1       4.517  -6.361   0.089  1.00  0.00     0.004 A 
ENDBRANCH  22  23
ENDBRANCH   3  10
BRANCH   1  30
HETATM   30  C7  UNL     1      -2.003   2.596   1.175  1.00  0.00     0.177 C 
BRANCH  30  31
HETATM   31  O3  UNL     1      -2.664   2.217  -0.009  1.00  0.00    -0.326 OA
BRANCH  31  32
HETATM   32  C3  UNL     1      -4.071   2.295   0.084  1.00  0.00     0.270 C 
HETATM   33  C2  UNL     1      -4.655   1.589  -1.118  1.00  0.00     0.241 C 
HETATM   34  C1  UNL     1      -6.159   1.751  -1.106  1.00  0.00     0.220 C 
HETATM   35  O13 UNL     1      -4.338   0.222  -1.062  1.00  0.00    -0.215 OA
HETATM   36  C5  UNL     1      -6.482   3.231  -1.082  1.00  0.00     0.212 C 
HETATM   37  O14 UNL     1      -6.709   1.170  -2.260  1.00  0.00    -0.218 OA
HETATM   38  C4  UNL     1      -5.780   3.902   0.092  1.00  0.00     0.151 C 
HETATM   39  O2  UNL     1      -7.878   3.366  -0.978  1.00  0.00    -0.218 OA
HETATM   40  O1  UNL     1      -4.397   3.669   0.028  1.00  0.00    -0.329 OA
HETATM   41  C6  UNL     1      -6.003   5.415   0.097  1.00  0.00     0.035 C 
ENDBRANCH  31  32
ENDBRANCH  30  31
ENDBRANCH   1  30
TORSDOF 5
