REMARK  4 active torsions:
REMARK  status: ('A' for Active; 'I' for Inactive)
REMARK    1  A    between atoms: C16_16  and  C19_19 
REMARK    2  A    between atoms: C19_19  and  C21_21 
REMARK    3  A    between atoms: C21_21  and  C22_22 
REMARK    4  A    between atoms: C22_22  and  C23_24 
ROOT
HETATM    1  C1  UNL     1      -5.190   0.258  -0.030  1.00  0.00     0.065 C 
HETATM    2  C2  UNL     1      -5.366  -1.147  -0.570  1.00  0.00     0.150 C 
HETATM    3  C3  UNL     1      -4.275  -2.192  -0.309  1.00  0.00     0.052 C 
HETATM    4  C4  UNL     1      -3.633  -2.004   1.099  1.00  0.00     0.011 C 
HETATM    5  C5  UNL     1      -3.392  -0.558   1.624  1.00  0.00     0.004 C 
HETATM    6  C6  UNL     1      -4.697   0.246   1.418  1.00  0.00     0.008 C 
HETATM    7  C7  UNL     1      -2.172   0.097   0.922  1.00  0.00     0.018 C 
HETATM    8  C8  UNL     1      -0.979  -0.835   0.820  1.00  0.00    -0.049 C 
HETATM    9  C9  UNL     1      -1.098  -2.160   0.997  1.00  0.00    -0.035 C 
HETATM   10  C10 UNL     1      -2.380  -2.867   1.328  1.00  0.00     0.026 C 
HETATM   11  C11 UNL     1       0.389  -0.199   0.638  1.00  0.00     0.015 C 
HETATM   12  C12 UNL     1       0.309   1.142  -0.148  1.00  0.00     0.003 C 
HETATM   13  C13 UNL     1      -0.562   2.121   0.672  1.00  0.00     0.001 C 
HETATM   14  C14 UNL     1      -1.730   1.474   1.455  1.00  0.00     0.004 C 
HETATM   15  C15 UNL     1      -0.267   0.999  -1.584  1.00  0.00     0.000 C 
HETATM   16  C16 UNL     1       1.818   1.494  -0.311  1.00  0.00     0.001 C 
HETATM   17  C17 UNL     1       2.434   0.099  -0.607  1.00  0.00     0.000 C 
HETATM   18  C18 UNL     1       1.408  -0.981  -0.208  1.00  0.00     0.004 C 
HETATM   19  C27 UNL     1       1.006  -0.114   2.063  1.00  0.00     0.004 C 
HETATM   20  C28 UNL     1      -3.134  -0.598   3.154  1.00  0.00     0.000 C 
HETATM   21  C29 UNL     1      -4.958  -3.585  -0.390  1.00  0.00     0.007 C 
HETATM   22  C30 UNL     1      -3.288  -2.115  -1.492  1.00  0.00     0.007 C 
HETATM   23  O2  UNL     1      -6.335  -1.397  -1.253  1.00  0.00    -0.296 OA
ENDROOT
BRANCH  16  24
HETATM   24  C19 UNL     1       2.271   2.605  -1.294  1.00  0.00     0.008 C 
HETATM   25  C20 UNL     1       1.560   3.948  -1.030  1.00  0.00     0.001 C 
BRANCH  24  26
HETATM   26  C21 UNL     1       3.796   2.872  -1.222  1.00  0.00     0.069 C 
BRANCH  26  27
HETATM   27  C22 UNL     1       4.674   1.743  -1.760  1.00  0.00     0.172 C 
HETATM   28  O1  UNL     1       4.549   1.444  -2.925  1.00  0.00    -0.291 OA
BRANCH  27  29
HETATM   29  C23 UNL     1       5.519   1.136  -0.884  1.00  0.00     0.029 C 
HETATM   30  C24 UNL     1       6.335   0.089  -1.112  1.00  0.00    -0.041 C 
HETATM   31  C25 UNL     1       7.171  -0.483   0.015  1.00  0.00     0.026 C 
HETATM   32  C26 UNL     1       6.509  -0.664  -2.411  1.00  0.00     0.026 C 
ENDBRANCH  27  29
ENDBRANCH  26  27
ENDBRANCH  24  26
ENDBRANCH  16  24
TORSDOF 4
