REMARK  0 active torsions:
REMARK  status: ('A' for Active; 'I' for Inactive)
ROOT
HETATM    1  C1  UNL     1      -2.526  -2.109  -1.751  1.00  0.00     0.033 C 
HETATM    2  C2  UNL     1      -2.034  -3.622  -0.997  1.00  0.00     0.153 C 
HETATM    3  C3  UNL     1      -2.619  -4.109   0.577  1.00  0.00     0.040 C 
HETATM    4  C4  UNL     1      -3.559  -2.881   1.509  1.00  0.00     0.060 C 
HETATM    5  C5  UNL     1      -3.611  -1.139   0.877  1.00  0.00     0.007 C 
HETATM    6  C6  UNL     1      -3.265  -0.818  -0.850  1.00  0.00     0.003 C 
HETATM    7  C7  UNL     1      -2.299  -0.824   1.478  1.00  0.00     0.001 C 
HETATM    8  C8  UNL     1      -2.119  -1.966   0.451  1.00  0.00     0.008 C 
HETATM    9  C9  UNL     1      -3.864  -2.704  -0.267  1.00  0.00     0.065 C 
HETATM   10  C10 UNL     1      -4.782  -3.186   0.811  1.00  0.00     0.150 C 
HETATM   11  O1  UNL     1      -5.891  -3.612   0.998  1.00  0.00    -0.296 OA
HETATM   12  C11 UNL     1      -0.668  -1.453  -0.112  1.00  0.00     0.004 C 
HETATM   13  C12 UNL     1      -0.556   0.083  -0.009  1.00  0.00     0.020 C 
HETATM   14  C13 UNL     1      -1.488   0.432   1.156  1.00  0.00     0.004 C 
HETATM   15  C14 UNL     1       0.821   0.710   0.074  1.00  0.00    -0.019 C 
HETATM   16  C15 UNL     1       1.942  -0.020   0.140  1.00  0.00    -0.049 C 
HETATM   17  C16 UNL     1       1.878  -1.517   0.282  1.00  0.00     0.021 C 
HETATM   18  C17 UNL     1       0.504  -1.988   0.770  1.00  0.00     0.005 C 
HETATM   19  C18 UNL     1       3.306   0.628   0.103  1.00  0.00     0.049 C 
HETATM   20  C19 UNL     1       3.265   2.111  -0.340  1.00  0.00     0.223 C 
HETATM   21  N1  UNL     1       2.141   2.820   0.252  1.00  0.00     0.139 N 
HETATM   22  C20 UNL     1       0.853   2.212  -0.075  1.00  0.00     0.272 C 
HETATM   23  C21 UNL     1       2.081   4.229  -0.151  1.00  0.00     0.251 C 
HETATM   24  C22 UNL     1       3.426   4.981  -0.169  1.00  0.00     0.034 C 
HETATM   25  C23 UNL     1       4.458   4.183   0.629  1.00  0.00     0.004 C 
HETATM   26  C24 UNL     1       4.613   2.782   0.030  1.00  0.00     0.034 C 
HETATM   27  C25 UNL     1       3.909   5.277  -1.601  1.00  0.00     0.002 C 
HETATM   28  C26 UNL     1       4.290  -0.159  -0.785  1.00  0.00     0.006 C 
HETATM   29  C27 UNL     1      -4.758  -0.299   1.438  1.00  0.00     0.000 C 
HETATM   30  O2  UNL     1      -2.326  -4.660  -1.913  1.00  0.00    -0.223 OA
ENDROOT
TORSDOF 0
