REMARK  8 active torsions:
REMARK  status: ('A' for Active; 'I' for Inactive)
REMARK    1  A    between atoms: C15_16  and  C18_19 
REMARK    2  A    between atoms: C18_19  and  C19_20 
REMARK    3  A    between atoms: C19_20  and  C20_21 
REMARK    4  A    between atoms: C19_20  and  O3_27 
REMARK    5  A    between atoms: C20_21  and  C21_22 
REMARK    6  A    between atoms: C21_22  and  C22_23 
REMARK    7  A    between atoms: O3_27  and  C25_28 
REMARK    8  A    between atoms: C29_32  and  C30_34 
ROOT
HETATM    1  C1  UNL     1      -5.050  -1.859  -2.278  1.00  0.00     0.182 C 
HETATM    2  C2  UNL     1      -5.091  -3.121  -3.123  1.00  0.00     0.183 C 
HETATM    3  C3  UNL     1      -3.787  -3.898  -2.964  1.00  0.00     0.043 C 
HETATM    4  C4  UNL     1      -3.475  -4.212  -1.487  1.00  0.00     0.065 C 
HETATM    5  C5  UNL     1      -3.467  -2.964  -0.572  1.00  0.00     0.013 C 
HETATM    6  C6  UNL     1      -4.776  -2.171  -0.809  1.00  0.00     0.036 C 
HETATM    7  C7  UNL     1      -2.183  -2.129  -0.854  1.00  0.00     0.021 C 
HETATM    8  C8  UNL     1      -0.958  -3.028  -0.869  1.00  0.00    -0.015 C 
HETATM    9  C9  UNL     1      -1.030  -4.343  -1.133  1.00  0.00     0.031 C 
HETATM   10  C10 UNL     1      -2.181  -5.004  -1.405  1.00  0.00     0.172 C 
HETATM   11  O1  UNL     1      -2.175  -6.191  -1.646  1.00  0.00    -0.291 OA
HETATM   12  C11 UNL     1       0.379  -2.324  -0.786  1.00  0.00     0.142 C 
HETATM   13  C12 UNL     1       0.446  -1.278   0.350  1.00  0.00     0.032 C 
HETATM   14  C13 UNL     1      -0.641  -0.228   0.068  1.00  0.00     0.003 C 
HETATM   15  C14 UNL     1      -2.037  -0.882   0.052  1.00  0.00     0.004 C 
HETATM   16  C15 UNL     1       1.925  -0.806   0.227  1.00  0.00     0.033 C 
HETATM   17  C16 UNL     1       2.669  -2.150   0.018  1.00  0.00     0.005 C 
HETATM   18  C17 UNL     1       1.640  -3.154  -0.543  1.00  0.00     0.035 C 
HETATM   19  C32 UNL     1       0.169  -1.960   1.715  1.00  0.00     0.003 C 
HETATM   20  O10 UNL     1       0.556  -1.712  -2.054  1.00  0.00    -0.222 OA
HETATM   21  C33 UNL     1      -3.496  -3.469   0.895  1.00  0.00     0.001 C 
HETATM   22  O11 UNL     1      -6.163  -3.946  -2.727  1.00  0.00    -0.221 OA
HETATM   23  O12 UNL     1      -6.269  -1.163  -2.401  1.00  0.00    -0.221 OA
ENDROOT
BRANCH  16  24
HETATM   24  C18 UNL     1       2.574   0.217   1.195  1.00  0.00     0.152 C 
HETATM   25  C31 UNL     1       4.062  -0.098   1.460  1.00  0.00     0.035 C 
HETATM   26  O9  UNL     1       1.980   0.088   2.460  1.00  0.00    -0.224 OA
BRANCH  24  27
HETATM   27  C19 UNL     1       2.445   1.718   0.808  1.00  0.00     0.146 C 
BRANCH  27  28
HETATM   28  C20 UNL     1       2.505   2.086  -0.688  1.00  0.00     0.035 C 
BRANCH  28  29
HETATM   29  C21 UNL     1       3.830   1.723  -1.379  1.00  0.00     0.033 C 
BRANCH  29  30
HETATM   30  C22 UNL     1       3.957   2.156  -2.846  1.00  0.00     0.127 C 
HETATM   31  C23 UNL     1       5.398   1.962  -3.328  1.00  0.00     0.033 C 
HETATM   32  C24 UNL     1       2.994   1.385  -3.752  1.00  0.00     0.033 C 
HETATM   33  O2  UNL     1       3.658   3.523  -2.949  1.00  0.00    -0.226 OA
ENDBRANCH  29  30
ENDBRANCH  28  29
ENDBRANCH  27  28
BRANCH  27  34
HETATM   34  O3  UNL     1       1.271   2.261   1.370  1.00  0.00    -0.329 OA
BRANCH  34  35
HETATM   35  C25 UNL     1       1.361   3.637   1.693  1.00  0.00     0.270 C 
HETATM   36  C26 UNL     1       0.105   4.408   1.344  1.00  0.00     0.241 C 
HETATM   37  C27 UNL     1      -1.008   4.260   2.360  1.00  0.00     0.220 C 
HETATM   38  O8  UNL     1       0.441   5.776   1.260  1.00  0.00    -0.215 OA
HETATM   39  C28 UNL     1      -0.444   4.475   3.747  1.00  0.00     0.215 C 
HETATM   40  O7  UNL     1      -1.588   2.985   2.253  1.00  0.00    -0.218 OA
HETATM   41  C29 UNL     1       0.782   3.619   4.028  1.00  0.00     0.184 C 
HETATM   42  O6  UNL     1      -0.095   5.837   3.889  1.00  0.00    -0.218 OA
HETATM   43  O4  UNL     1       1.770   3.752   3.042  1.00  0.00    -0.326 OA
BRANCH  41  44
HETATM   44  C30 UNL     1       0.504   2.163   4.379  1.00  0.00     0.214 C 
HETATM   45  O5  UNL     1      -0.393   2.086   5.468  1.00  0.00    -0.218 OA
ENDBRANCH  41  44
ENDBRANCH  34  35
ENDBRANCH  27  34
ENDBRANCH  24  27
ENDBRANCH  16  24
TORSDOF 8
