REMARK  0 active torsions:
REMARK  status: ('A' for Active; 'I' for Inactive)
ROOT
HETATM    1  C1  UNL     1      -2.802  -0.104   1.946  1.00  0.00     0.033 C 
HETATM    2  C2  UNL     1      -2.571  -1.616   2.011  1.00  0.00     0.003 C 
HETATM    3  C3  UNL     1      -1.951  -2.159   0.706  1.00  0.00     0.003 C 
HETATM    4  C4  UNL     1      -0.675  -1.325   0.382  1.00  0.00     0.040 C 
HETATM    5  C5  UNL     1      -0.739   0.237   0.419  1.00  0.00     0.061 C 
HETATM    6  C6  UNL     1      -1.496   0.645   1.700  1.00  0.00     0.155 C 
HETATM    7  O1  UNL     1      -1.804   2.017   1.713  1.00  0.00    -0.223 OA
HETATM    8  C7  UNL     1       0.736   0.787   0.404  1.00  0.00     0.047 C 
HETATM    9  C8  UNL     1       1.367   0.462  -0.974  1.00  0.00     0.110 C 
HETATM   10  C9  UNL     1       0.431  -0.506  -1.679  1.00  0.00     0.254 C 
HETATM   11  C10 UNL     1       0.032  -1.746  -0.909  1.00  0.00     0.206 C 
HETATM   12  O2  UNL     1       1.132  -2.574  -0.617  1.00  0.00    -0.218 OA
HETATM   13  O3  UNL     1      -0.748   0.166  -2.027  1.00  0.00    -0.330 OA
HETATM   14  C11 UNL     1      -1.391   0.705  -0.893  1.00  0.00     0.147 C 
HETATM   15  O4  UNL     1       0.943  -0.873  -2.938  1.00  0.00    -0.192 OA
HETATM   16  C12 UNL     1       1.672   1.753  -1.769  1.00  0.00     0.017 C 
HETATM   17  C13 UNL     1       2.844   2.305  -0.945  1.00  0.00     0.028 C 
HETATM   18  C14 UNL     1       2.407   2.733   0.469  1.00  0.00     0.037 C 
HETATM   19  C15 UNL     1       1.001   2.245   0.842  1.00  0.00     0.153 C 
HETATM   20  O5  UNL     1       0.088   3.162   0.285  1.00  0.00    -0.223 OA
HETATM   21  C16 UNL     1       3.639   1.029  -0.834  1.00  0.00     0.012 C 
HETATM   22  C17 UNL     1       2.811  -0.043  -0.826  1.00  0.00     0.173 C 
HETATM   23  O6  UNL     1       3.166  -1.194  -0.754  1.00  0.00    -0.291 OA
HETATM   24  C18 UNL     1       4.973   0.949  -0.749  1.00  0.00    -0.002 C 
HETATM   25  C19 UNL     1      -1.540  -3.633   0.960  1.00  0.00     0.000 C 
HETATM   26  C20 UNL     1      -3.048  -2.207  -0.385  1.00  0.00     0.000 C 
ENDROOT
TORSDOF 0
