REMARK  8 active torsions:
REMARK  status: ('A' for Active; 'I' for Inactive)
REMARK    1  A    between atoms: C3_3  and  O3_10 
REMARK    2  A    between atoms: C5_5  and  C7_8 
REMARK    3  A    between atoms: O3_10  and  C8_11 
REMARK    4  A    between atoms: C8_11  and  C9_12 
REMARK    5  A    between atoms: C9_12  and  C10_13 
REMARK    6  A    between atoms: C10_13  and  C11_14 
REMARK    7  A    between atoms: C13_16  and  O7_32 
REMARK    8  A    between atoms: C18_21  and  C19_23 
ROOT
HETATM    1  C11 UNL     1      -0.837   1.441  -0.959  1.00  0.00    -0.020 A 
HETATM    2  C12 UNL     1      -1.417   2.373  -1.745  1.00  0.00     0.022 A 
HETATM    3  C13 UNL     1      -0.828   2.940  -2.819  1.00  0.00     0.116 A 
HETATM    4  C14 UNL     1       0.454   2.588  -3.020  1.00  0.00     0.122 A 
HETATM    5  C15 UNL     1       1.049   1.672  -2.254  1.00  0.00     0.026 A 
HETATM    6  C16 UNL     1       0.433   1.080  -1.228  1.00  0.00    -0.002 A 
HETATM    7  C17 UNL     1       2.277   1.552  -2.765  1.00  0.00     0.027 A 
HETATM    8  C18 UNL     1       2.298   2.406  -3.806  1.00  0.00     0.100 A 
HETATM    9  O4  UNL     1       1.204   2.978  -3.913  1.00  0.00    -0.305 OA
ENDROOT
BRANCH   1  10
HETATM   10  C10 UNL     1      -1.627   0.851   0.197  1.00  0.00     0.029 C 
BRANCH  10  11
HETATM   11  C9  UNL     1      -0.921  -0.242   1.015  1.00  0.00     0.037 C 
BRANCH  11  12
HETATM   12  C8  UNL     1      -1.797  -0.822   2.127  1.00  0.00     0.143 C 
BRANCH  12  13
HETATM   13  O3  UNL     1      -1.084  -1.877   2.725  1.00  0.00    -0.354 OA
BRANCH  13  14
HETATM   14  C3  UNL     1      -1.749  -2.500   3.793  1.00  0.00     0.148 C 
HETATM   15  C2  UNL     1      -1.437  -1.766   5.095  1.00  0.00     0.212 C 
HETATM   16  C1  UNL     1      -1.980  -2.528   6.293  1.00  0.00     0.215 C 
HETATM   17  O8  UNL     1      -0.037  -1.635   5.194  1.00  0.00    -0.218 OA
HETATM   18  C6  UNL     1      -1.458  -3.951   6.344  1.00  0.00     0.188 C 
HETATM   19  O9  UNL     1      -1.640  -1.884   7.498  1.00  0.00    -0.218 OA
HETATM   20  C5  UNL     1      -1.813  -4.733   5.074  1.00  0.00     0.069 C 
HETATM   21  O1  UNL     1      -1.982  -4.576   7.489  1.00  0.00    -0.221 OA
HETATM   22  C4  UNL     1      -1.268  -3.957   3.859  1.00  0.00     0.038 C 
BRANCH  20  23
HETATM   23  C7  UNL     1      -3.305  -5.057   4.949  1.00  0.00     0.185 C 
HETATM   24  O2  UNL     1      -3.539  -5.843   3.798  1.00  0.00    -0.221 OA
ENDBRANCH  20  23
ENDBRANCH  13  14
ENDBRANCH  12  13
ENDBRANCH  11  12
ENDBRANCH  10  11
ENDBRANCH   1  10
BRANCH   3  25
HETATM   25  O7  UNL     1      -1.433   3.940  -3.535  1.00  0.00    -0.326 OA
HETATM   26  C26 UNL     1      -1.933   3.527  -4.787  1.00  0.00     0.181 C 
ENDBRANCH   3  25
BRANCH   8  27
HETATM   27  C19 UNL     1       3.329   2.644  -4.646  1.00  0.00     0.025 A 
HETATM   28  C20 UNL     1       4.518   2.011  -4.523  1.00  0.00     0.004 A 
HETATM   29  C21 UNL     1       5.546   2.234  -5.359  1.00  0.00     0.026 A 
HETATM   30  C22 UNL     1       5.375   3.118  -6.348  1.00  0.00     0.119 A 
HETATM   31  C23 UNL     1       4.211   3.758  -6.491  1.00  0.00     0.119 A 
HETATM   32  O6  UNL     1       6.185   3.453  -7.207  1.00  0.00    -0.300 OA
HETATM   33  C24 UNL     1       3.189   3.535  -5.653  1.00  0.00     0.028 A 
HETATM   34  O5  UNL     1       4.244   4.525  -7.450  1.00  0.00    -0.300 OA
HETATM   35  C25 UNL     1       5.541   4.418  -8.041  1.00  0.00     0.304 A 
ENDBRANCH   8  27
TORSDOF 8
