REMARK  5 active torsions:
REMARK  status: ('A' for Active; 'I' for Inactive)
REMARK    1  A    between atoms: C2_2  and  O6_41 
REMARK    2  A    between atoms: C3_3  and  O3_8 
REMARK    3  A    between atoms: O3_8  and  C6_9 
REMARK    4  A    between atoms: C21_24  and  C30_33 
REMARK    5  A    between atoms: O6_41  and  C36_42 
ROOT
HETATM    1  C6  UNL     1      -0.585  -0.810  -2.199  1.00  0.00     0.118 C 
HETATM    2  C7  UNL     1      -0.091  -1.887  -1.194  1.00  0.00     0.025 C 
HETATM    3  C8  UNL     1       0.199  -1.249   0.201  1.00  0.00     0.002 C 
HETATM    4  C9  UNL     1      -0.924  -0.368   0.823  1.00  0.00     0.001 C 
HETATM    5  C10 UNL     1      -1.301   0.690  -0.246  1.00  0.00     0.003 C 
HETATM    6  C11 UNL     1      -1.669   0.100  -1.615  1.00  0.00     0.030 C 
HETATM    7  C12 UNL     1      -0.327   0.376   2.072  1.00  0.00     0.005 C 
HETATM    8  C13 UNL     1       0.369  -0.481   3.168  1.00  0.00     0.004 C 
HETATM    9  C14 UNL     1       1.348  -1.461   2.477  1.00  0.00     0.000 C 
HETATM   10  C15 UNL     1       0.775  -2.209   1.262  1.00  0.00     0.000 C 
HETATM   11  C16 UNL     1       1.142   0.471   4.174  1.00  0.00     0.015 C 
HETATM   12  C17 UNL     1       0.111   1.368   4.843  1.00  0.00    -0.049 C 
HETATM   13  C18 UNL     1      -0.924   1.832   4.118  1.00  0.00    -0.035 C 
HETATM   14  C19 UNL     1      -1.242   1.451   2.696  1.00  0.00     0.025 C 
HETATM   15  C20 UNL     1       0.308   1.897   6.253  1.00  0.00     0.028 C 
HETATM   16  C21 UNL     1       1.015   0.903   7.202  1.00  0.00     0.082 C 
HETATM   17  C22 UNL     1       2.286   0.371   6.508  1.00  0.00     0.011 C 
HETATM   18  C23 UNL     1       1.972  -0.351   5.193  1.00  0.00     0.004 C 
HETATM   19  C24 UNL     1       1.412   1.601   8.528  1.00  0.00     0.011 C 
HETATM   20  C25 UNL     1       0.629   2.894   8.787  1.00  0.00     0.001 C 
HETATM   21  C26 UNL     1       0.869   3.953   7.685  1.00  0.00     0.000 C 
HETATM   22  C27 UNL     1       0.971   3.284   6.291  1.00  0.00     0.004 C 
HETATM   23  C28 UNL     1      -0.304   4.957   7.708  1.00  0.00     0.000 C 
HETATM   24  C29 UNL     1       2.170   4.734   7.975  1.00  0.00     0.000 C 
HETATM   25  C31 UNL     1       2.134   1.454   3.492  1.00  0.00     0.004 C 
HETATM   26  C32 UNL     1      -0.689  -1.315   3.942  1.00  0.00     0.000 C 
HETATM   27  C33 UNL     1      -2.200  -1.173   1.173  1.00  0.00     0.000 C 
HETATM   28  C34 UNL     1       1.228  -2.462  -1.787  1.00  0.00     0.002 C 
HETATM   29  C35 UNL     1      -1.077  -3.078  -1.124  1.00  0.00     0.002 C 
ENDROOT
BRANCH   1  30
HETATM   30  O3  UNL     1      -1.092  -1.477  -3.329  1.00  0.00    -0.332 OA
BRANCH  30  31
HETATM   31  C3  UNL     1      -0.799  -0.944  -4.601  1.00  0.00     0.267 C 
HETATM   32  C2  UNL     1      -1.044  -2.021  -5.654  1.00  0.00     0.207 C 
HETATM   33  C1  UNL     1      -2.529  -2.324  -5.819  1.00  0.00     0.217 C 
HETATM   34  C5  UNL     1      -3.301  -1.034  -6.000  1.00  0.00     0.214 C 
HETATM   35  O11 UNL     1      -3.044  -2.999  -4.697  1.00  0.00    -0.218 OA
HETATM   36  C4  UNL     1      -2.971  -0.048  -4.897  1.00  0.00     0.181 C 
HETATM   37  O2  UNL     1      -4.673  -1.346  -5.961  1.00  0.00    -0.218 OA
HETATM   38  O1  UNL     1      -1.589   0.203  -4.822  1.00  0.00    -0.326 OA
BRANCH  32  39
HETATM   39  O6  UNL     1      -0.593  -1.645  -6.926  1.00  0.00    -0.324 OA
BRANCH  39  40
HETATM   40  C36 UNL     1       0.804  -1.537  -7.093  1.00  0.00     0.270 C 
HETATM   41  C37 UNL     1       1.224  -2.256  -8.357  1.00  0.00     0.241 C 
HETATM   42  C38 UNL     1       0.697  -1.555  -9.588  1.00  0.00     0.220 C 
HETATM   43  O10 UNL     1       2.628  -2.304  -8.446  1.00  0.00    -0.215 OA
HETATM   44  C39 UNL     1       1.067  -0.088  -9.539  1.00  0.00     0.212 C 
HETATM   45  O9  UNL     1       1.275  -2.133 -10.731  1.00  0.00    -0.218 OA
HETATM   46  C40 UNL     1       0.576   0.530  -8.239  1.00  0.00     0.151 C 
HETATM   47  O8  UNL     1       0.474   0.534 -10.653  1.00  0.00    -0.218 OA
HETATM   48  O7  UNL     1       1.103  -0.155  -7.131  1.00  0.00    -0.329 OA
HETATM   49  C41 UNL     1       0.988   1.999  -8.123  1.00  0.00     0.035 C 
ENDBRANCH  39  40
ENDBRANCH  32  39
ENDBRANCH  30  31
ENDBRANCH   1  30
BRANCH  16  50
HETATM   50  C30 UNL     1       0.049  -0.242   7.525  1.00  0.00     0.184 C 
HETATM   51  O4  UNL     1      -1.147  -0.256   7.355  1.00  0.00    -0.647 OA
HETATM   52  O5  UNL     1       0.663  -1.305   8.080  1.00  0.00    -0.647 OA
ENDBRANCH  16  50
TORSDOF 5
