REMARK  8 active torsions:
REMARK  status: ('A' for Active; 'I' for Inactive)
REMARK    1  A    between atoms: C6_6  and  C7_7 
REMARK    2  A    between atoms: C8_8  and  C9_9 
REMARK       I    between atoms: C9_9  and  N1_10 
REMARK    3  A    between atoms: N1_10  and  C10_11 
REMARK    4  A    between atoms: C10_11  and  N2_12 
REMARK    5  A    between atoms: C10_11  and  C16_19 
REMARK       I    between atoms: N2_12  and  C11_13 
REMARK    6  A    between atoms: C11_13  and  C12_15 
REMARK    7  A    between atoms: C16_19  and  C17_20 
REMARK    8  A    between atoms: C17_20  and  C18_21 
ROOT
HETATM    1  C10 UNL     1       0.571   0.918  -0.123  1.00  0.00     0.212 C 
ENDROOT
BRANCH   1   2
HETATM    2  N1  UNL     1      -0.889   0.864   0.065  1.00  0.00    -0.211 NA
HETATM    3  C9  UNL     1      -1.596  -0.311   0.051  1.00  0.00     0.277 C 
HETATM    4  O3  UNL     1      -1.043  -1.357  -0.180  1.00  0.00    -0.266 OA
BRANCH   3   5
HETATM    5  C8  UNL     1      -2.924  -0.129   0.273  1.00  0.00     0.062 C 
HETATM    6  C7  UNL     1      -3.919  -1.025   0.433  1.00  0.00     0.005 C 
BRANCH   6   7
HETATM    7  C6  UNL     1      -3.988  -2.366   0.585  1.00  0.00     0.000 A 
HETATM    8  C1  UNL     1      -2.960  -3.180   0.894  1.00  0.00     0.000 A 
HETATM    9  C2  UNL     1      -3.114  -4.505   1.051  1.00  0.00     0.000 A 
HETATM   10  C3  UNL     1      -4.323  -5.066   0.918  1.00  0.00     0.000 A 
HETATM   11  C4  UNL     1      -5.373  -4.279   0.648  1.00  0.00     0.000 A 
HETATM   12  C5  UNL     1      -5.201  -2.956   0.498  1.00  0.00     0.000 A 
ENDBRANCH   6   7
ENDBRANCH   3   5
ENDBRANCH   1   2
BRANCH   1  13
HETATM   13  N2  UNL     1       0.936  -0.102  -1.114  1.00  0.00    -0.212 NA
HETATM   14  C11 UNL     1       2.180  -0.536  -1.487  1.00  0.00     0.272 C 
HETATM   15  O1  UNL     1       2.182  -1.157  -2.526  1.00  0.00    -0.266 OA
BRANCH  14  16
HETATM   16  C12 UNL     1       3.361  -0.341  -0.826  1.00  0.00     0.032 C 
HETATM   17  C13 UNL     1       4.494  -0.750  -1.443  1.00  0.00    -0.025 C 
HETATM   18  C14 UNL     1       5.909  -0.630  -0.929  1.00  0.00     0.030 C 
HETATM   19  C15 UNL     1       3.460   0.256   0.561  1.00  0.00     0.036 C 
ENDBRANCH  14  16
ENDBRANCH   1  13
BRANCH   1  20
HETATM   20  C16 UNL     1       0.944   2.326  -0.625  1.00  0.00     0.052 C 
BRANCH  20  21
HETATM   21  C17 UNL     1       0.799   3.391   0.474  1.00  0.00     0.040 C 
BRANCH  21  22
HETATM   22  C18 UNL     1       1.247   4.769  -0.006  1.00  0.00     0.182 C 
HETATM   23  O2  UNL     1       1.116   5.697   1.052  1.00  0.00    -0.221 OA
ENDBRANCH  21  22
ENDBRANCH  20  21
ENDBRANCH   1  20
TORSDOF 8
