REMARK  0 active torsions:
REMARK  status: ('A' for Active; 'I' for Inactive)
ROOT
HETATM    1  C1  UNL     1      -4.453  -0.858  -3.078  1.00  0.00     0.065 C 
HETATM    2  C2  UNL     1      -5.306  -1.549  -2.037  1.00  0.00     0.150 C 
HETATM    3  C3  UNL     1      -4.570  -2.470  -1.065  1.00  0.00     0.051 C 
HETATM    4  C4  UNL     1      -3.119  -1.944  -0.852  1.00  0.00     0.006 C 
HETATM    5  C5  UNL     1      -2.918  -0.407  -1.004  1.00  0.00     0.001 C 
HETATM    6  C6  UNL     1      -3.323  -0.021  -2.461  1.00  0.00     0.008 C 
HETATM    7  C7  UNL     1      -1.401  -0.055  -0.791  1.00  0.00     0.000 C 
HETATM    8  C8  UNL     1      -0.693  -0.586   0.503  1.00  0.00     0.003 C 
HETATM    9  C9  UNL     1      -0.981  -2.114   0.549  1.00  0.00     0.000 C 
HETATM   10  C10 UNL     1      -2.465  -2.499   0.426  1.00  0.00     0.000 C 
HETATM   11  C11 UNL     1       0.878  -0.284   0.431  1.00  0.00     0.030 C 
HETATM   12  C12 UNL     1       1.145   1.236   0.186  1.00  0.00     0.093 C 
HETATM   13  C13 UNL     1       0.515   1.646  -1.148  1.00  0.00     0.027 C 
HETATM   14  C14 UNL     1      -1.007   1.400  -1.132  1.00  0.00     0.002 C 
HETATM   15  C15 UNL     1       2.604   1.688   0.379  1.00  0.00     0.034 C 
HETATM   16  C16 UNL     1       2.624   1.756   1.909  1.00  0.00     0.081 C 
HETATM   17  C17 UNL     1       2.279   0.411   2.554  1.00  0.00     0.152 C 
HETATM   18  C18 UNL     1       1.658  -0.699   1.716  1.00  0.00     0.067 C 
HETATM   19  O1  UNL     1       2.489   0.223   3.732  1.00  0.00    -0.296 OA
HETATM   20  C19 UNL     1       3.905   2.381   2.478  1.00  0.00     0.009 C 
HETATM   21  C20 UNL     1       4.865   2.837   1.369  1.00  0.00     0.001 C 
HETATM   22  C21 UNL     1       5.162   1.730   0.326  1.00  0.00     0.000 C 
HETATM   23  C22 UNL     1       3.870   0.985  -0.114  1.00  0.00     0.003 C 
HETATM   24  C23 UNL     1       5.832   2.383  -0.902  1.00  0.00     0.000 C 
HETATM   25  C24 UNL     1       6.165   0.715   0.923  1.00  0.00     0.000 C 
HETATM   26  C25 UNL     1       1.365   2.589   2.064  1.00  0.00     0.149 C 
HETATM   27  O2  UNL     1       0.469   1.999   1.161  1.00  0.00    -0.359 OA
HETATM   28  C26 UNL     1       1.499  -1.155  -0.711  1.00  0.00     0.003 C 
HETATM   29  C27 UNL     1      -1.316   0.020   1.793  1.00  0.00     0.000 C 
HETATM   30  C28 UNL     1      -3.845   0.393  -0.063  1.00  0.00     0.000 C 
HETATM   31  C29 UNL     1      -5.406  -2.604   0.228  1.00  0.00     0.007 C 
HETATM   32  C30 UNL     1      -4.548  -3.868  -1.728  1.00  0.00     0.007 C 
HETATM   33  O3  UNL     1      -6.508  -1.412  -2.029  1.00  0.00    -0.296 OA
ENDROOT
TORSDOF 0
