REMARK  0 active torsions:
REMARK  status: ('A' for Active; 'I' for Inactive)
ROOT
HETATM    1  C1  UNL     1      -2.927  -0.006  -0.652  1.00  0.00     0.063 C 
HETATM    2  C2  UNL     1      -2.950  -1.508  -0.381  1.00  0.00     0.155 C 
HETATM    3  C3  UNL     1      -1.851  -2.253  -1.155  1.00  0.00     0.037 C 
HETATM    4  C4  UNL     1      -0.462  -1.619  -0.861  1.00  0.00     0.093 C 
HETATM    5  C5  UNL     1      -0.363  -0.084  -0.716  1.00  0.00     0.064 C 
HETATM    6  C6  UNL     1      -1.614   0.600  -0.167  1.00  0.00     0.130 C 
HETATM    7  O1  UNL     1      -1.601   1.962  -0.454  1.00  0.00    -0.304 OA
HETATM    8  C7  UNL     1      -0.463   2.675  -0.256  1.00  0.00     0.278 C 
HETATM    9  C8  UNL     1       0.693   1.936   0.414  1.00  0.00     0.129 C 
HETATM   10  C9  UNL     1       0.801   0.402   0.198  1.00  0.00     0.021 C 
HETATM   11  C10 UNL     1       0.967  -0.376   1.538  1.00  0.00     0.001 C 
HETATM   12  C11 UNL     1       1.758   0.331   2.677  1.00  0.00     0.001 C 
HETATM   13  C12 UNL     1       2.094   1.829   2.389  1.00  0.00     0.008 C 
HETATM   14  C13 UNL     1       0.673   2.259   1.917  1.00  0.00     0.017 C 
HETATM   15  C14 UNL     1       2.836   2.746   1.357  1.00  0.00     0.058 C 
HETATM   16  C15 UNL     1       2.051   2.561   0.063  1.00  0.00     0.158 C 
HETATM   17  O2  UNL     1       2.457   2.764  -1.057  1.00  0.00    -0.296 OA
HETATM   18  C16 UNL     1       4.365   2.610   1.212  1.00  0.00     0.008 C 
HETATM   19  O3  UNL     1      -0.386   3.857  -0.518  1.00  0.00    -0.264 OA
HETATM   20  C17 UNL     1      -0.032   0.288  -2.169  1.00  0.00     0.155 C 
HETATM   21  O4  UNL     1       0.692  -0.785  -2.713  1.00  0.00    -0.302 OA
HETATM   22  C18 UNL     1       0.546  -1.903  -1.959  1.00  0.00     0.272 C 
HETATM   23  O5  UNL     1       1.100  -2.959  -2.166  1.00  0.00    -0.264 OA
HETATM   24  C19 UNL     1      -1.839  -3.738  -0.706  1.00  0.00     0.003 C 
HETATM   25  C20 UNL     1      -2.212  -2.283  -2.660  1.00  0.00     0.003 C 
HETATM   26  O6  UNL     1      -2.789  -1.717   1.004  1.00  0.00    -0.223 OA
ENDROOT
TORSDOF 0
