REMARK  3 active torsions:
REMARK  status: ('A' for Active; 'I' for Inactive)
REMARK    1  A    between atoms: C3_3  and  C21_25 
REMARK    2  A    between atoms: C21_25  and  O5_26 
REMARK    3  A    between atoms: O5_26  and  C22_27 
ROOT
HETATM    1  C1  UNL     1      -1.505   1.446  -2.282  1.00  0.00     0.030 C 
HETATM    2  C2  UNL     1      -0.934   0.143  -2.874  1.00  0.00     0.005 C 
HETATM    3  C3  UNL     1      -0.630  -0.990  -1.861  1.00  0.00     0.031 C 
HETATM    4  C4  UNL     1       0.092  -0.495  -0.564  1.00  0.00     0.034 C 
HETATM    5  C5  UNL     1       0.097   1.028  -0.334  1.00  0.00     0.056 C 
HETATM    6  C6  UNL     1      -1.239   1.594  -0.786  1.00  0.00     0.127 C 
HETATM    7  O1  UNL     1      -1.434   2.903  -0.356  1.00  0.00    -0.304 OA
HETATM    8  C7  UNL     1      -1.491   3.118   0.989  1.00  0.00     0.278 C 
HETATM    9  C8  UNL     1      -0.825   2.045   1.854  1.00  0.00     0.133 C 
HETATM   10  C9  UNL     1       0.380   1.401   1.143  1.00  0.00     0.021 C 
HETATM   11  C10 UNL     1       1.078   0.297   1.972  1.00  0.00     0.004 C 
HETATM   12  C11 UNL     1       1.975  -0.619   1.111  1.00  0.00     0.030 C 
HETATM   13  C12 UNL     1       1.596  -0.685  -0.380  1.00  0.00     0.116 C 
HETATM   14  O2  UNL     1       2.228   0.356  -1.072  1.00  0.00    -0.357 OA
HETATM   15  C13 UNL     1       1.329   1.431  -1.158  1.00  0.00     0.144 C 
HETATM   16  C14 UNL     1       0.124  -0.493   2.903  1.00  0.00     0.005 C 
HETATM   17  C15 UNL     1      -0.992   0.374   3.511  1.00  0.00     0.026 C 
HETATM   18  C16 UNL     1      -1.815   0.987   2.372  1.00  0.00     0.021 C 
HETATM   19  C17 UNL     1      -0.412   1.620   4.126  1.00  0.00     0.013 C 
HETATM   20  C18 UNL     1      -0.286   2.594   3.191  1.00  0.00     0.177 C 
HETATM   21  O3  UNL     1       0.208   3.686   3.349  1.00  0.00    -0.291 OA
HETATM   22  C19 UNL     1      -0.033   1.754   5.403  1.00  0.00    -0.002 C 
HETATM   23  O4  UNL     1      -1.982   4.117   1.470  1.00  0.00    -0.264 OA
HETATM   24  C20 UNL     1      -1.999  -1.613  -1.454  1.00  0.00     0.003 C 
ENDROOT
BRANCH   3  25
HETATM   25  C21 UNL     1       0.113  -2.144  -2.578  1.00  0.00     0.152 C 
BRANCH  25  26
HETATM   26  O5  UNL     1       1.274  -1.684  -3.219  1.00  0.00    -0.302 OA
BRANCH  26  27
HETATM   27  C22 UNL     1       2.158  -2.543  -3.802  1.00  0.00     0.272 C 
HETATM   28  O6  UNL     1       3.179  -2.158  -4.332  1.00  0.00    -0.264 OA
HETATM   29  C23 UNL     1       1.787  -4.016  -3.775  1.00  0.00     0.106 C 
ENDBRANCH  26  27
ENDBRANCH  25  26
ENDBRANCH   3  25
TORSDOF 3
