REMARK  2 active torsions:
REMARK  status: ('A' for Active; 'I' for Inactive)
REMARK    1  A    between atoms: C6_6  and  O1_7 
REMARK    2  A    between atoms: O1_7  and  C7_8 
ROOT
HETATM    1  C1  UNL     1      -2.931  -0.311   1.666  1.00  0.00     0.030 C 
HETATM    2  C2  UNL     1      -2.685  -1.821   1.709  1.00  0.00     0.003 C 
HETATM    3  C3  UNL     1      -2.138  -2.343   0.365  1.00  0.00     0.000 C 
HETATM    4  C4  UNL     1      -0.876  -1.513  -0.008  1.00  0.00     0.010 C 
HETATM    5  C5  UNL     1      -0.914   0.045   0.102  1.00  0.00     0.054 C 
HETATM    6  C6  UNL     1      -1.634   0.459   1.408  1.00  0.00     0.127 C 
HETATM    7  C9  UNL     1       0.576   0.543   0.072  1.00  0.00     0.014 C 
HETATM    8  C10 UNL     1       1.200   0.190  -1.311  1.00  0.00     0.106 C 
HETATM    9  C11 UNL     1       0.169  -0.631  -2.079  1.00  0.00     0.224 C 
HETATM   10  C12 UNL     1      -0.258  -1.895  -1.363  1.00  0.00     0.060 C 
HETATM   11  O3  UNL     1      -0.965   0.147  -2.343  1.00  0.00    -0.332 OA
HETATM   12  C13 UNL     1      -1.567   0.623  -1.162  1.00  0.00     0.147 C 
HETATM   13  O4  UNL     1       0.632  -0.977  -3.367  1.00  0.00    -0.195 OA
HETATM   14  C14 UNL     1       1.604   1.488  -2.036  1.00  0.00     0.159 C 
HETATM   15  C15 UNL     1       2.795   1.930  -1.185  1.00  0.00     0.033 C 
HETATM   16  C16 UNL     1       2.249   2.508   0.133  1.00  0.00     0.003 C 
HETATM   17  C17 UNL     1       0.830   2.014   0.465  1.00  0.00     0.001 C 
HETATM   18  C18 UNL     1       3.608   0.622  -1.050  1.00  0.00     0.033 C 
HETATM   19  C19 UNL     1       2.573  -0.504  -1.174  1.00  0.00     0.159 C 
HETATM   20  O5  UNL     1       2.639  -1.414  -0.105  1.00  0.00    -0.223 OA
HETATM   21  C20 UNL     1       4.573   0.526   0.139  1.00  0.00     0.003 C 
HETATM   22  O6  UNL     1       2.018   1.243  -3.359  1.00  0.00    -0.223 OA
HETATM   23  C21 UNL     1      -1.730  -3.825   0.568  1.00  0.00     0.000 C 
HETATM   24  C22 UNL     1      -3.279  -2.352  -0.679  1.00  0.00     0.000 C 
ENDROOT
BRANCH   6  25
HETATM   25  O1  UNL     1      -1.946   1.823   1.395  1.00  0.00    -0.304 OA
BRANCH  25  26
HETATM   26  C7  UNL     1      -1.899   2.625   2.498  1.00  0.00     0.272 C 
HETATM   27  O2  UNL     1      -2.203   3.798   2.447  1.00  0.00    -0.264 OA
HETATM   28  C8  UNL     1      -1.423   2.001   3.800  1.00  0.00     0.106 C 
ENDBRANCH  25  26
ENDBRANCH   6  25
TORSDOF 2
