REMARK  0 active torsions:
REMARK  status: ('A' for Active; 'I' for Inactive)
ROOT
HETATM    1  C1  UNL     1      -2.962   0.013   2.412  1.00  0.00     0.033 C 
HETATM    2  C2  UNL     1      -2.648  -1.480   2.534  1.00  0.00     0.003 C 
HETATM    3  C3  UNL     1      -2.095  -2.060   1.215  1.00  0.00     0.003 C 
HETATM    4  C4  UNL     1      -0.856  -1.219   0.783  1.00  0.00     0.040 C 
HETATM    5  C5  UNL     1      -0.949   0.343   0.832  1.00  0.00     0.059 C 
HETATM    6  C6  UNL     1      -1.703   0.809   2.090  1.00  0.00     0.154 C 
HETATM    7  O1  UNL     1      -2.081   2.162   1.984  1.00  0.00    -0.223 OA
HETATM    8  C7  UNL     1       0.513   0.906   0.827  1.00  0.00     0.019 C 
HETATM    9  C8  UNL     1       1.178   0.483  -0.499  1.00  0.00     0.130 C 
HETATM   10  C9  UNL     1       0.226  -0.392  -1.292  1.00  0.00     0.226 C 
HETATM   11  C10 UNL     1      -0.255  -1.633  -0.568  1.00  0.00     0.204 C 
HETATM   12  O2  UNL     1       0.760  -2.597  -0.406  1.00  0.00    -0.218 OA
HETATM   13  O3  UNL     1       0.832  -0.740  -2.509  1.00  0.00    -0.308 OA
HETATM   14  C11 UNL     1       1.196   0.379  -3.296  1.00  0.00     0.237 C 
HETATM   15  O4  UNL     1       2.136   1.146  -2.580  1.00  0.00    -0.333 OA
HETATM   16  C12 UNL     1       1.608   1.659  -1.387  1.00  0.00     0.133 C 
HETATM   17  C13 UNL     1       2.732   2.241  -0.530  1.00  0.00     0.053 C 
HETATM   18  C14 UNL     1       2.147   2.897   0.735  1.00  0.00     0.007 C 
HETATM   19  C15 UNL     1       0.721   2.415   1.071  1.00  0.00     0.001 C 
HETATM   20  C16 UNL     1       3.435   0.956  -0.168  1.00  0.00     0.015 C 
HETATM   21  C17 UNL     1       2.563  -0.080  -0.151  1.00  0.00     0.175 C 
HETATM   22  O5  UNL     1       2.819  -1.232   0.099  1.00  0.00    -0.291 OA
HETATM   23  C18 UNL     1       4.743   0.836   0.097  1.00  0.00    -0.002 C 
HETATM   24  C19 UNL     1       1.854  -0.129  -4.569  1.00  0.00     0.067 C 
HETATM   25  O6  UNL     1      -0.935   0.341  -1.608  1.00  0.00    -0.332 OA
HETATM   26  C20 UNL     1      -1.598   0.832  -0.469  1.00  0.00     0.147 C 
HETATM   27  C21 UNL     1      -1.652  -3.519   1.495  1.00  0.00     0.000 C 
HETATM   28  C22 UNL     1      -3.247  -2.161   0.187  1.00  0.00     0.000 C 
ENDROOT
TORSDOF 0
