REMARK  2 active torsions:
REMARK  status: ('A' for Active; 'I' for Inactive)
REMARK    1  A    between atoms: C6_6  and  O1_7 
REMARK    2  A    between atoms: O1_7  and  C7_8 
ROOT
HETATM    1  C1  UNL     1       5.043  -1.180  -1.876  1.00  0.00     0.030 C 
HETATM    2  C2  UNL     1       5.952  -0.134  -1.221  1.00  0.00     0.003 C 
HETATM    3  C3  UNL     1       5.233   1.188  -0.868  1.00  0.00     0.000 C 
HETATM    4  C4  UNL     1       3.910   0.870  -0.109  1.00  0.00     0.005 C 
HETATM    5  C5  UNL     1       2.949  -0.196  -0.723  1.00  0.00     0.026 C 
HETATM    6  C6  UNL     1       3.794  -1.469  -1.031  1.00  0.00     0.124 C 
HETATM    7  C9  UNL     1       1.799  -0.497   0.313  1.00  0.00     0.014 C 
HETATM    8  C10 UNL     1       1.104   0.726   0.983  1.00  0.00     0.112 C 
HETATM    9  C11 UNL     1       2.145   1.736   1.472  1.00  0.00     0.161 C 
HETATM   10  C12 UNL     1       3.139   2.112   0.379  1.00  0.00     0.034 C 
HETATM   11  O3  UNL     1       1.556   2.907   1.990  1.00  0.00    -0.223 OA
HETATM   12  C13 UNL     1      -0.039   1.277   0.113  1.00  0.00     0.165 C 
HETATM   13  C14 UNL     1      -1.090   0.170   0.173  1.00  0.00     0.056 C 
HETATM   14  C15 UNL     1      -0.591  -1.040  -0.624  1.00  0.00     0.007 C 
HETATM   15  C16 UNL     1       0.758  -1.571  -0.103  1.00  0.00     0.001 C 
HETATM   16  C17 UNL     1      -1.062  -0.124   1.647  1.00  0.00     0.015 C 
HETATM   17  C18 UNL     1       0.285   0.186   2.168  1.00  0.00     0.173 C 
HETATM   18  O4  UNL     1       0.675   0.044   3.318  1.00  0.00    -0.291 OA
HETATM   19  C19 UNL     1      -2.070  -0.599   2.397  1.00  0.00    -0.002 C 
HETATM   20  O5  UNL     1      -0.595   2.431   0.700  1.00  0.00    -0.223 OA
HETATM   21  C20 UNL     1       2.318   0.263  -2.059  1.00  0.00     0.003 C 
HETATM   22  C21 UNL     1       6.212   1.977   0.045  1.00  0.00     0.000 C 
HETATM   23  C22 UNL     1       5.049   2.060  -2.128  1.00  0.00     0.000 C 
ENDROOT
BRANCH   6  24
HETATM   24  O1  UNL     1       4.229  -2.082   0.155  1.00  0.00    -0.304 OA
BRANCH  24  25
HETATM   25  C7  UNL     1       3.994  -3.406   0.355  1.00  0.00     0.272 C 
HETATM   26  C8  UNL     1       4.569  -3.833   1.692  1.00  0.00     0.106 C 
HETATM   27  O2  UNL     1       3.418  -4.145  -0.410  1.00  0.00    -0.264 OA
ENDBRANCH  24  25
ENDBRANCH   6  24
TORSDOF 2
