REMARK  2 active torsions:
REMARK  status: ('A' for Active; 'I' for Inactive)
REMARK    1  A    between atoms: C14_15  and  O2_16 
REMARK    2  A    between atoms: O2_16  and  C15_17 
ROOT
HETATM    1  C1  UNL     1       5.039  -1.166  -1.712  1.00  0.00     0.000 C 
HETATM    2  C2  UNL     1       5.917  -0.075  -1.091  1.00  0.00     0.000 C 
HETATM    3  C3  UNL     1       5.174   1.253  -0.815  1.00  0.00     0.000 C 
HETATM    4  C4  UNL     1       3.860   0.932  -0.043  1.00  0.00     0.003 C 
HETATM    5  C5  UNL     1       2.895  -0.143  -0.644  1.00  0.00     0.003 C 
HETATM    6  C6  UNL     1       3.756  -1.413  -0.901  1.00  0.00     0.000 C 
HETATM    7  C7  UNL     1       1.758  -0.469   0.407  1.00  0.00     0.040 C 
HETATM    8  C8  UNL     1       1.075   0.773   1.049  1.00  0.00     0.114 C 
HETATM    9  C9  UNL     1       2.150   1.714   1.588  1.00  0.00     0.161 C 
HETATM   10  C10 UNL     1       3.097   2.167   0.486  1.00  0.00     0.034 C 
HETATM   11  O1  UNL     1       1.585   2.796   2.287  1.00  0.00    -0.223 OA
HETATM   12  C11 UNL     1      -0.010   1.330   0.109  1.00  0.00     0.165 C 
HETATM   13  C12 UNL     1      -1.095   0.253   0.179  1.00  0.00     0.059 C 
HETATM   14  C13 UNL     1      -0.603  -1.005  -0.547  1.00  0.00     0.037 C 
HETATM   15  C14 UNL     1       0.719  -1.558   0.023  1.00  0.00     0.125 C 
HETATM   16  C17 UNL     1      -1.139   0.030   1.665  1.00  0.00     0.015 C 
HETATM   17  C18 UNL     1       0.176   0.384   2.229  1.00  0.00     0.173 C 
HETATM   18  O4  UNL     1       0.465   0.557   3.406  1.00  0.00    -0.291 OA
HETATM   19  C19 UNL     1      -2.179  -0.417   2.391  1.00  0.00    -0.002 C 
HETATM   20  O5  UNL     1      -0.548   2.534   0.600  1.00  0.00    -0.223 OA
HETATM   21  C20 UNL     1       2.301   0.288  -2.002  1.00  0.00     0.000 C 
HETATM   22  C21 UNL     1       6.130   2.109   0.062  1.00  0.00     0.000 C 
HETATM   23  C22 UNL     1       4.974   2.058  -2.115  1.00  0.00     0.000 C 
ENDROOT
BRANCH  15  24
HETATM   24  O2  UNL     1       0.391  -2.302   1.171  1.00  0.00    -0.304 OA
BRANCH  24  25
HETATM   25  C15 UNL     1       0.621  -3.635   1.344  1.00  0.00     0.272 C 
HETATM   26  O3  UNL     1       0.273  -4.216   2.351  1.00  0.00    -0.264 OA
HETATM   27  C16 UNL     1       1.344  -4.373   0.233  1.00  0.00     0.106 C 
ENDBRANCH  24  25
ENDBRANCH  15  24
TORSDOF 2
