REMARK  1 active torsions:
REMARK  status: ('A' for Active; 'I' for Inactive)
REMARK    1  A    between atoms: C15_15  and  C17_18 
ROOT
HETATM    1  C1  UNL     1      -1.246  -0.302   2.069  1.00  0.00     0.000 C 
HETATM    2  C2  UNL     1      -1.873  -1.602   2.599  1.00  0.00     0.000 C 
HETATM    3  C3  UNL     1      -0.919  -2.790   2.447  1.00  0.00     0.000 C 
HETATM    4  C4  UNL     1      -0.391  -2.990   1.007  1.00  0.00     0.000 C 
HETATM    5  C5  UNL     1       0.161  -1.632   0.480  1.00  0.00     0.000 C 
HETATM    6  C6  UNL     1      -0.760  -0.377   0.593  1.00  0.00     0.000 C 
HETATM    7  C7  UNL     1       0.098   0.900   0.262  1.00  0.00     0.002 C 
HETATM    8  C8  UNL     1       1.011   0.846  -0.999  1.00  0.00     0.028 C 
HETATM    9  C9  UNL     1       1.762  -0.489  -1.101  1.00  0.00     0.002 C 
HETATM   10  C10 UNL     1       0.846  -1.700  -0.898  1.00  0.00     0.000 C 
HETATM   11  C11 UNL     1       0.174   1.146  -2.264  1.00  0.00     0.005 C 
HETATM   12  C12 UNL     1       0.008   2.666  -2.105  1.00  0.00     0.030 C 
HETATM   13  C13 UNL     1      -1.058   2.889  -1.019  1.00  0.00     0.003 C 
HETATM   14  C14 UNL     1      -0.637   2.268   0.329  1.00  0.00     0.000 C 
HETATM   15  C15 UNL     1       1.382   3.126  -1.643  1.00  0.00     0.148 A 
HETATM   16  C16 UNL     1       2.002   2.031  -0.959  1.00  0.00     0.142 A 
HETATM   17  O1  UNL     1       2.618   2.278  -2.201  1.00  0.00    -0.354 OA
HETATM   18  C18 UNL     1      -2.018  -0.447  -0.300  1.00  0.00     0.000 C 
HETATM   19  C19 UNL     1       0.748  -4.043   1.113  1.00  0.00     0.000 C 
HETATM   20  C20 UNL     1      -1.468  -3.628   0.108  1.00  0.00     0.000 C 
ENDROOT
BRANCH  15  21
HETATM   21  C17 UNL     1       1.724   4.579  -1.397  1.00  0.00     0.212 C 
HETATM   22  O2  UNL     1       2.950   4.782  -0.707  1.00  0.00    -0.218 OA
ENDBRANCH  15  21
TORSDOF 1
