REMARK  0 active torsions:
REMARK  status: ('A' for Active; 'I' for Inactive)
ROOT
HETATM    1  C1  UNL     1      -1.857   0.062   0.882  1.00  0.00     0.000 C 
HETATM    2  C2  UNL     1      -2.901  -1.064   0.812  1.00  0.00     0.000 C 
HETATM    3  C3  UNL     1      -2.244  -2.420   0.533  1.00  0.00     0.000 C 
HETATM    4  C4  UNL     1      -1.338  -2.438  -0.721  1.00  0.00     0.000 C 
HETATM    5  C5  UNL     1      -0.395  -1.202  -0.685  1.00  0.00     0.000 C 
HETATM    6  C6  UNL     1      -1.005   0.202  -0.405  1.00  0.00     0.000 C 
HETATM    7  C7  UNL     1       0.143   1.273  -0.291  1.00  0.00     0.007 C 
HETATM    8  C8  UNL     1       1.596   0.736  -0.262  1.00  0.00     0.054 C 
HETATM    9  C9  UNL     1       1.884  -0.327  -1.336  1.00  0.00     0.007 C 
HETATM   10  C10 UNL     1       0.650  -1.114  -1.804  1.00  0.00     0.000 C 
HETATM   11  C11 UNL     1       2.572   1.933  -0.429  1.00  0.00     0.010 C 
HETATM   12  C12 UNL     1       2.427   2.682   0.907  1.00  0.00     0.035 C 
HETATM   13  C13 UNL     1       1.057   3.378   0.912  1.00  0.00     0.003 C 
HETATM   14  C14 UNL     1      -0.088   2.355   0.792  1.00  0.00     0.001 C 
HETATM   15  C15 UNL     1       2.480   1.511   1.866  1.00  0.00     0.171 A 
HETATM   16  C16 UNL     1       1.983   0.329   1.168  1.00  0.00     0.176 C 
HETATM   17  O1  UNL     1       1.906  -0.773   1.658  1.00  0.00    -0.294 OA
HETATM   18  O2  UNL     1       3.839   1.380   2.692  1.00  0.00    -0.347 OA
HETATM   19  C17 UNL     1       2.587   1.628   3.285  1.00  0.00     0.177 A 
HETATM   20  C18 UNL     1      -1.944   0.734  -1.522  1.00  0.00     0.000 C 
HETATM   21  C19 UNL     1      -0.513  -3.753  -0.631  1.00  0.00     0.000 C 
HETATM   22  C20 UNL     1      -2.176  -2.554  -2.009  1.00  0.00     0.000 C 
ENDROOT
TORSDOF 0
