REMARK  1 active torsions:
REMARK  status: ('A' for Active; 'I' for Inactive)
REMARK    1  A    between atoms: C12_12  and  C17_17 
ROOT
HETATM    1  C1  UNL     1      -2.895  -0.120   2.139  1.00  0.00     0.033 C 
HETATM    2  C2  UNL     1      -2.818  -1.642   2.079  1.00  0.00     0.152 C 
HETATM    3  C3  UNL     1      -2.276  -2.202   0.747  1.00  0.00     0.028 C 
HETATM    4  C4  UNL     1      -0.947  -1.461   0.396  1.00  0.00     0.002 C 
HETATM    5  C5  UNL     1      -0.947   0.098   0.455  1.00  0.00     0.000 C 
HETATM    6  C6  UNL     1      -1.537   0.524   1.825  1.00  0.00     0.003 C 
HETATM    7  C7  UNL     1       0.542   0.577   0.389  1.00  0.00     0.000 C 
HETATM    8  C8  UNL     1       1.413   0.021  -0.766  1.00  0.00     0.003 C 
HETATM    9  C9  UNL     1       1.239  -1.503  -0.901  1.00  0.00     0.000 C 
HETATM   10  C10 UNL     1      -0.227  -1.959  -0.875  1.00  0.00     0.000 C 
HETATM   11  C11 UNL     1       2.897   0.324  -0.416  1.00  0.00     0.033 C 
HETATM   12  C12 UNL     1       3.153   1.837  -0.357  1.00  0.00     0.157 C 
HETATM   13  C13 UNL     1       1.813   2.569  -0.529  1.00  0.00     0.031 C 
HETATM   14  C14 UNL     1       0.796   2.094   0.531  1.00  0.00     0.003 C 
HETATM   15  C15 UNL     1       1.203   2.266  -1.909  1.00  0.00     0.003 C 
HETATM   16  C16 UNL     1       1.157   0.743  -2.107  1.00  0.00     0.000 C 
HETATM   17  O2  UNL     1       3.682   2.171   0.901  1.00  0.00    -0.223 OA
HETATM   18  C18 UNL     1      -1.804   0.752  -0.655  1.00  0.00     0.000 C 
HETATM   19  C19 UNL     1      -1.990  -3.713   0.976  1.00  0.00     0.003 C 
HETATM   20  C20 UNL     1      -3.334  -2.141  -0.376  1.00  0.00     0.003 C 
HETATM   21  O3  UNL     1      -4.095  -2.164   2.367  1.00  0.00    -0.224 OA
ENDROOT
BRANCH  12  22
HETATM   22  C17 UNL     1       4.225   2.265  -1.351  1.00  0.00     0.212 C 
HETATM   23  O1  UNL     1       4.509   3.634  -1.147  1.00  0.00    -0.218 OA
ENDBRANCH  12  22
TORSDOF 1
