REMARK  5 active torsions:
REMARK  status: ('A' for Active; 'I' for Inactive)
REMARK    1  A    between atoms: C7_7  and  C12_13 
REMARK    2  A    between atoms: C12_13  and  C13_14 
REMARK    3  A    between atoms: C13_14  and  C14_15 
REMARK    4  A    between atoms: C14_15  and  C15_16 
REMARK    5  A    between atoms: C15_16  and  C16_17 
ROOT
HETATM    1  C1  UNL     1      -3.598  -0.991  -0.693  1.00  0.00     0.172 C 
HETATM    2  C2  UNL     1      -3.677  -1.905   0.303  1.00  0.00     0.029 C 
HETATM    3  C3  UNL     1      -2.614  -2.523   0.846  1.00  0.00    -0.041 C 
HETATM    4  C4  UNL     1      -1.187  -2.271   0.356  1.00  0.00     0.023 C 
HETATM    5  C5  UNL     1      -1.098  -0.826  -0.199  1.00  0.00     0.012 C 
HETATM    6  C6  UNL     1      -2.228  -0.612  -1.225  1.00  0.00     0.070 C 
HETATM    7  C7  UNL     1       0.309  -0.258  -0.624  1.00  0.00     0.007 C 
HETATM    8  C8  UNL     1       1.482  -0.811   0.253  1.00  0.00     0.058 C 
HETATM    9  C9  UNL     1       1.213  -2.126   0.976  1.00  0.00     0.150 C 
HETATM   10  C10 UNL     1      -0.179  -2.364   1.513  1.00  0.00     0.068 C 
HETATM   11  O1  UNL     1       2.077  -2.954   1.166  1.00  0.00    -0.296 OA
HETATM   12  C11 UNL     1       2.856  -0.925  -0.442  1.00  0.00     0.008 C 
HETATM   13  C18 UNL     1       0.550  -0.522  -2.130  1.00  0.00     0.000 C 
HETATM   14  C19 UNL     1      -0.875  -3.365  -0.685  1.00  0.00     0.004 C 
HETATM   15  C20 UNL     1      -2.833  -3.564   1.922  1.00  0.00     0.026 C 
HETATM   16  O4  UNL     1      -4.594  -0.481  -1.157  1.00  0.00    -0.291 OA
ENDROOT
BRANCH   7  17
HETATM   17  C12 UNL     1       0.231   1.297  -0.423  1.00  0.00     0.000 C 
BRANCH  17  18
HETATM   18  C13 UNL     1       1.449   2.160  -0.800  1.00  0.00     0.001 C 
BRANCH  18  19
HETATM   19  C14 UNL     1       1.264   3.667  -0.501  1.00  0.00     0.011 C 
HETATM   20  C17 UNL     1       1.964   4.519  -1.578  1.00  0.00     0.001 C 
BRANCH  19  21
HETATM   21  C15 UNL     1       1.808   4.066   0.886  1.00  0.00     0.098 C 
BRANCH  21  22
HETATM   22  C16 UNL     1       1.169   3.324   2.042  1.00  0.00     0.185 C 
HETATM   23  O2  UNL     1       1.635   2.385   2.643  1.00  0.00    -0.647 OA
HETATM   24  O3  UNL     1      -0.029   3.843   2.366  1.00  0.00    -0.647 OA
ENDBRANCH  21  22
ENDBRANCH  19  21
ENDBRANCH  18  19
ENDBRANCH  17  18
ENDBRANCH   7  17
TORSDOF 5
