REMARK  1 active torsions:
REMARK  status: ('A' for Active; 'I' for Inactive)
REMARK    1  A    between atoms: C9_9  and  C11_11 
ROOT
HETATM    1  C1  UNL     1       1.606   1.200   0.220  1.00  0.00     0.005 C 
HETATM    2  C2  UNL     1       3.013   0.814  -0.340  1.00  0.00     0.033 C 
HETATM    3  C3  UNL     1       3.366  -0.666  -0.142  1.00  0.00     0.185 C 
HETATM    4  C4  UNL     1       2.301  -1.592  -0.710  1.00  0.00     0.210 C 
HETATM    5  C5  UNL     1       0.898  -1.302  -0.181  1.00  0.00     0.157 C 
HETATM    6  C6  UNL     1       0.560   0.191  -0.373  1.00  0.00     0.031 C 
HETATM    7  C7  UNL     1      -0.914   0.474  -0.013  1.00  0.00     0.003 C 
HETATM    8  C8  UNL     1      -1.888  -0.444  -0.769  1.00  0.00     0.004 C 
HETATM    9  C9  UNL     1      -1.603  -1.931  -0.482  1.00  0.00     0.021 C 
HETATM   10  C10 UNL     1      -0.137  -2.197  -0.885  1.00  0.00     0.037 C 
HETATM   11  C13 UNL     1      -2.546  -2.810  -1.331  1.00  0.00     0.004 C 
HETATM   12  O1  UNL     1       0.894  -1.645   1.177  1.00  0.00    -0.223 OA
HETATM   13  O2  UNL     1       2.683  -2.914  -0.399  1.00  0.00    -0.218 OA
HETATM   14  O3  UNL     1       3.567  -0.985   1.214  1.00  0.00    -0.221 OA
HETATM   15  C14 UNL     1       4.189   1.823  -0.156  1.00  0.00     0.003 C 
HETATM   16  C15 UNL     1       3.723   3.223  -0.621  1.00  0.00     0.000 C 
HETATM   17  C16 UNL     1       2.391   3.663  -0.008  1.00  0.00     0.000 C 
HETATM   18  C17 UNL     1       1.285   2.635  -0.287  1.00  0.00     0.000 C 
HETATM   19  C18 UNL     1       5.390   1.447  -1.068  1.00  0.00     0.000 C 
HETATM   20  C19 UNL     1       4.770   1.899   1.271  1.00  0.00     0.000 C 
HETATM   21  C20 UNL     1       1.487   1.249   1.762  1.00  0.00     0.000 C 
ENDROOT
BRANCH   9  22
HETATM   22  C11 UNL     1      -1.891  -2.242   0.978  1.00  0.00    -0.027 C 
HETATM   23  C12 UNL     1      -1.495  -3.346   1.625  1.00  0.00    -0.005 C 
ENDBRANCH   9  22
TORSDOF 1
