REMARK  4 active torsions:
REMARK  status: ('A' for Active; 'I' for Inactive)
REMARK    1  A    between atoms: C3_3  and  C19_22 
REMARK    2  A    between atoms: C15_16  and  C17_19 
REMARK    3  A    between atoms: C19_22  and  O4_23 
REMARK    4  A    between atoms: O4_23  and  C20_24 
ROOT
HETATM    1  C1  UNL     1      -1.377   1.220   1.326  1.00  0.00     0.033 C 
HETATM    2  C2  UNL     1      -1.565  -0.261   1.024  1.00  0.00     0.154 C 
HETATM    3  C3  UNL     1      -0.996  -0.723  -0.341  1.00  0.00     0.056 C 
HETATM    4  C4  UNL     1       0.463  -0.173  -0.456  1.00  0.00     0.007 C 
HETATM    5  C5  UNL     1       0.730   1.334  -0.155  1.00  0.00     0.001 C 
HETATM    6  C6  UNL     1       0.099   1.628   1.227  1.00  0.00     0.003 C 
HETATM    7  C7  UNL     1       2.273   1.645  -0.214  1.00  0.00     0.005 C 
HETATM    8  C8  UNL     1       3.221   0.415  -0.299  1.00  0.00     0.056 C 
HETATM    9  C9  UNL     1       2.781  -0.543  -1.418  1.00  0.00     0.154 C 
HETATM   10  C10 UNL     1       1.274  -0.596  -1.688  1.00  0.00     0.033 C 
HETATM   11  O1  UNL     1       3.239  -1.842  -1.116  1.00  0.00    -0.223 OA
HETATM   12  C11 UNL     1       4.640   0.953  -0.647  1.00  0.00     0.007 C 
HETATM   13  C12 UNL     1       5.042   1.548   0.712  1.00  0.00     0.030 C 
HETATM   14  C13 UNL     1       4.299   2.888   0.842  1.00  0.00     0.003 C 
HETATM   15  C14 UNL     1       2.774   2.664   0.841  1.00  0.00     0.000 C 
HETATM   16  C15 UNL     1       4.531   0.510   1.701  1.00  0.00     0.148 A 
HETATM   17  C16 UNL     1       3.431  -0.191   1.104  1.00  0.00     0.145 A 
HETATM   18  O2  UNL     1       4.577  -1.004   1.189  1.00  0.00    -0.354 OA
HETATM   19  C18 UNL     1       0.086   2.312  -1.176  1.00  0.00     0.000 C 
HETATM   20  C22 UNL     1      -1.912  -0.287  -1.505  1.00  0.00     0.005 C 
HETATM   21  O6  UNL     1      -2.938  -0.567   1.134  1.00  0.00    -0.223 OA
ENDROOT
BRANCH   3  22
HETATM   22  C19 UNL     1      -1.012  -2.279  -0.282  1.00  0.00     0.154 C 
BRANCH  22  23
HETATM   23  O4  UNL     1      -0.988  -2.868  -1.557  1.00  0.00    -0.302 OA
BRANCH  23  24
HETATM   24  C20 UNL     1      -1.171  -4.215  -1.610  1.00  0.00     0.272 C 
HETATM   25  C21 UNL     1      -1.202  -4.682  -3.051  1.00  0.00     0.106 C 
HETATM   26  O5  UNL     1      -1.316  -4.936  -0.648  1.00  0.00    -0.264 OA
ENDBRANCH  23  24
ENDBRANCH  22  23
ENDBRANCH   3  22
BRANCH  16  27
HETATM   27  C17 UNL     1       4.736   0.622   3.196  1.00  0.00     0.212 C 
HETATM   28  O3  UNL     1       3.847  -0.185   3.958  1.00  0.00    -0.218 OA
ENDBRANCH  16  27
TORSDOF 4
