REMARK  2 active torsions:
REMARK  status: ('A' for Active; 'I' for Inactive)
REMARK    1  A    between atoms: C9_9  and  O1_11 
REMARK    2  A    between atoms: O1_11  and  C11_12 
ROOT
HETATM    1  C1  UNL     1       5.019  -1.829  -2.016  1.00  0.00     0.000 C 
HETATM    2  C2  UNL     1       5.885  -0.788  -1.302  1.00  0.00     0.000 C 
HETATM    3  C3  UNL     1       5.146   0.535  -0.990  1.00  0.00     0.000 C 
HETATM    4  C4  UNL     1       3.796   0.204  -0.287  1.00  0.00     0.003 C 
HETATM    5  C5  UNL     1       2.857  -0.851  -0.953  1.00  0.00     0.003 C 
HETATM    6  C6  UNL     1       3.721  -2.111  -1.243  1.00  0.00     0.000 C 
HETATM    7  C7  UNL     1       1.717  -1.218   0.069  1.00  0.00     0.040 C 
HETATM    8  C8  UNL     1       1.018  -0.024   0.777  1.00  0.00     0.083 C 
HETATM    9  C9  UNL     1       2.022   1.007   1.304  1.00  0.00     0.131 C 
HETATM   10  C10 UNL     1       3.004   1.429   0.211  1.00  0.00     0.031 C 
HETATM   11  C13 UNL     1      -0.112   0.564  -0.095  1.00  0.00     0.014 C 
HETATM   12  C14 UNL     1      -1.175  -0.542  -0.049  1.00  0.00     0.028 C 
HETATM   13  C15 UNL     1      -0.670  -1.736  -0.871  1.00  0.00     0.037 C 
HETATM   14  C16 UNL     1       0.688  -2.275  -0.397  1.00  0.00     0.153 C 
HETATM   15  O3  UNL     1       0.442  -3.166   0.672  1.00  0.00    -0.223 OA
HETATM   16  C17 UNL     1      -1.159  -0.858   1.421  1.00  0.00     0.012 C 
HETATM   17  C18 UNL     1       0.193  -0.586   1.948  1.00  0.00     0.171 C 
HETATM   18  O4  UNL     1       0.591  -0.762   3.091  1.00  0.00    -0.292 OA
HETATM   19  C19 UNL     1      -2.175  -1.328   2.163  1.00  0.00    -0.002 C 
HETATM   20  C20 UNL     1       2.258  -0.382  -2.297  1.00  0.00     0.000 C 
HETATM   21  C21 UNL     1       6.081   1.333  -0.040  1.00  0.00     0.000 C 
HETATM   22  C22 UNL     1       5.003   1.399  -2.260  1.00  0.00     0.000 C 
ENDROOT
BRANCH   9  23
HETATM   23  O1  UNL     1       1.341   2.112   1.823  1.00  0.00    -0.304 OA
BRANCH  23  24
HETATM   24  C11 UNL     1       1.943   2.839   2.804  1.00  0.00     0.272 C 
HETATM   25  C12 UNL     1       1.008   3.924   3.295  1.00  0.00     0.106 C 
HETATM   26  O2  UNL     1       3.059   2.648   3.233  1.00  0.00    -0.264 OA
ENDBRANCH  23  24
ENDBRANCH   9  23
TORSDOF 2
