REMARK  4 active torsions:
REMARK  status: ('A' for Active; 'I' for Inactive)
REMARK    1  A    between atoms: C3_3  and  C19_21 
REMARK    2  A    between atoms: C15_16  and  C17_18 
REMARK    3  A    between atoms: C19_21  and  O3_22 
REMARK    4  A    between atoms: O3_22  and  C20_23 
ROOT
HETATM    1  C1  UNL     1      -1.591   1.295   1.409  1.00  0.00     0.033 C 
HETATM    2  C2  UNL     1      -1.792  -0.187   1.112  1.00  0.00     0.154 C 
HETATM    3  C3  UNL     1      -1.190  -0.670  -0.232  1.00  0.00     0.056 C 
HETATM    4  C4  UNL     1       0.276  -0.136  -0.311  1.00  0.00     0.007 C 
HETATM    5  C5  UNL     1       0.546   1.376  -0.030  1.00  0.00     0.001 C 
HETATM    6  C6  UNL     1      -0.110   1.689   1.337  1.00  0.00     0.003 C 
HETATM    7  C7  UNL     1       2.093   1.672  -0.062  1.00  0.00     0.006 C 
HETATM    8  C8  UNL     1       3.014   0.428  -0.105  1.00  0.00     0.047 C 
HETATM    9  C9  UNL     1       2.605  -0.603  -1.159  1.00  0.00     0.156 C 
HETATM   10  C10 UNL     1       1.118  -0.586  -1.514  1.00  0.00     0.033 C 
HETATM   11  O1  UNL     1       2.968  -1.887  -0.704  1.00  0.00    -0.223 OA
HETATM   12  C11 UNL     1       4.470   0.896  -0.374  1.00  0.00     0.011 C 
HETATM   13  C12 UNL     1       4.846   1.558   0.963  1.00  0.00     0.026 C 
HETATM   14  C13 UNL     1       4.105   2.901   1.040  1.00  0.00     0.004 C 
HETATM   15  C14 UNL     1       2.577   2.702   0.991  1.00  0.00     0.001 C 
HETATM   16  C15 UNL     1       4.242   0.548   1.903  1.00  0.00     0.015 C 
HETATM   17  C16 UNL     1       3.225  -0.096   1.302  1.00  0.00    -0.025 C 
HETATM   18  C18 UNL     1      -0.067   2.350  -1.072  1.00  0.00     0.000 C 
HETATM   19  C22 UNL     1      -2.066  -0.234  -1.425  1.00  0.00     0.005 C 
HETATM   20  O5  UNL     1      -3.172  -0.468   1.185  1.00  0.00    -0.223 OA
ENDROOT
BRANCH   3  21
HETATM   21  C19 UNL     1      -1.225  -2.226  -0.163  1.00  0.00     0.154 C 
BRANCH  21  22
HETATM   22  O3  UNL     1      -1.123  -2.828  -1.429  1.00  0.00    -0.302 OA
BRANCH  22  23
HETATM   23  C20 UNL     1      -1.426  -4.152  -1.507  1.00  0.00     0.272 C 
HETATM   24  C21 UNL     1      -1.332  -4.627  -2.943  1.00  0.00     0.106 C 
HETATM   25  O4  UNL     1      -1.743  -4.849  -0.569  1.00  0.00    -0.264 OA
ENDBRANCH  22  23
ENDBRANCH  21  22
ENDBRANCH   3  21
BRANCH  16  26
HETATM   26  C17 UNL     1       4.641   0.303   3.302  1.00  0.00     0.230 C 
HETATM   27  O2  UNL     1       5.557   0.913   3.832  1.00  0.00    -0.283 OA
ENDBRANCH  16  26
TORSDOF 4
