REMARK  1 active torsions:
REMARK  status: ('A' for Active; 'I' for Inactive)
REMARK    1  A    between atoms: C3_3  and  C20_20 
ROOT
HETATM    1  C1  UNL     1       5.016  -1.639  -1.655  1.00  0.00     0.000 C 
HETATM    2  C2  UNL     1       5.898  -0.553  -1.032  1.00  0.00     0.003 C 
HETATM    3  C3  UNL     1       5.174   0.797  -0.790  1.00  0.00     0.031 C 
HETATM    4  C4  UNL     1       3.852   0.497  -0.015  1.00  0.00     0.003 C 
HETATM    5  C5  UNL     1       2.888  -0.588  -0.593  1.00  0.00     0.000 C 
HETATM    6  C6  UNL     1       3.737  -1.868  -0.836  1.00  0.00     0.000 C 
HETATM    7  C7  UNL     1       1.774  -0.901   0.474  1.00  0.00     0.000 C 
HETATM    8  C8  UNL     1       1.077   0.311   1.157  1.00  0.00     0.004 C 
HETATM    9  C9  UNL     1       2.092   1.383   1.571  1.00  0.00     0.000 C 
HETATM   10  C10 UNL     1       3.070   1.739   0.447  1.00  0.00     0.000 C 
HETATM   11  C11 UNL     1      -0.063   0.874   0.286  1.00  0.00     0.004 C 
HETATM   12  C12 UNL     1      -1.110  -0.243   0.385  1.00  0.00     0.018 C 
HETATM   13  C13 UNL     1      -0.627  -1.458  -0.416  1.00  0.00     0.004 C 
HETATM   14  C14 UNL     1       0.730  -1.983   0.092  1.00  0.00     0.000 C 
HETATM   15  C15 UNL     1      -1.067  -0.553   1.857  1.00  0.00    -0.045 C 
HETATM   16  C16 UNL     1       0.274  -0.147   2.408  1.00  0.00     0.022 C 
HETATM   17  C17 UNL     1      -2.059  -1.111   2.561  1.00  0.00    -0.009 C 
HETATM   18  C18 UNL     1       2.252  -0.193  -1.943  1.00  0.00     0.000 C 
HETATM   19  C19 UNL     1       4.981   1.537  -2.130  1.00  0.00     0.003 C 
ENDROOT
BRANCH   3  20
HETATM   20  C20 UNL     1       6.161   1.641   0.058  1.00  0.00     0.182 C 
HETATM   21  O1  UNL     1       5.922   3.032  -0.035  1.00  0.00    -0.221 OA
ENDBRANCH   3  20
TORSDOF 1
