REMARK  3 active torsions:
REMARK  status: ('A' for Active; 'I' for Inactive)
REMARK    1  A    between atoms: C5_5  and  C18_20 
REMARK    2  A    between atoms: C18_20  and  O3_21 
REMARK    3  A    between atoms: O3_21  and  C19_22 
ROOT
HETATM    1  C1  UNL     1      -2.569   0.015   0.886  1.00  0.00     0.000 C 
HETATM    2  C2  UNL     1      -2.569  -1.515   0.809  1.00  0.00     0.000 C 
HETATM    3  C3  UNL     1      -1.689  -2.080  -0.331  1.00  0.00     0.000 C 
HETATM    4  C4  UNL     1      -0.295  -1.369  -0.348  1.00  0.00     0.003 C 
HETATM    5  C5  UNL     1      -0.223   0.182  -0.186  1.00  0.00     0.031 C 
HETATM    6  C6  UNL     1      -1.128   0.523   1.025  1.00  0.00     0.003 C 
HETATM    7  C7  UNL     1       1.274   0.648  -0.001  1.00  0.00     0.040 C 
HETATM    8  C8  UNL     1       2.363  -0.453  -0.119  1.00  0.00     0.058 C 
HETATM    9  C9  UNL     1       2.106  -1.467  -1.243  1.00  0.00     0.007 C 
HETATM   10  C10 UNL     1       0.635  -1.842  -1.475  1.00  0.00     0.001 C 
HETATM   11  C11 UNL     1       3.738   0.226  -0.367  1.00  0.00     0.012 C 
HETATM   12  C12 UNL     1       4.026   0.906   0.977  1.00  0.00     0.028 C 
HETATM   13  C13 UNL     1       3.064   2.095   1.131  1.00  0.00     0.037 C 
HETATM   14  C14 UNL     1       1.592   1.656   1.126  1.00  0.00     0.153 C 
HETATM   15  O1  UNL     1       1.315   1.118   2.398  1.00  0.00    -0.223 OA
HETATM   16  C15 UNL     1       3.668  -0.230   1.898  1.00  0.00     0.012 C 
HETATM   17  C16 UNL     1       2.657  -1.090   1.244  1.00  0.00     0.168 C 
HETATM   18  O2  UNL     1       2.220  -2.149   1.674  1.00  0.00    -0.292 OA
HETATM   19  C17 UNL     1       4.151  -0.451   3.133  1.00  0.00    -0.002 C 
HETATM   20  C21 UNL     1      -1.505  -3.593  -0.015  1.00  0.00     0.000 C 
HETATM   21  C22 UNL     1      -2.474  -2.034  -1.661  1.00  0.00     0.000 C 
ENDROOT
BRANCH   5  22
HETATM   22  C18 UNL     1      -0.766   0.920  -1.438  1.00  0.00     0.152 C 
BRANCH  22  23
HETATM   23  O3  UNL     1      -0.900   2.295  -1.178  1.00  0.00    -0.302 OA
BRANCH  23  24
HETATM   24  C19 UNL     1      -1.546   3.039  -2.116  1.00  0.00     0.272 C 
HETATM   25  C20 UNL     1      -1.770   4.448  -1.605  1.00  0.00     0.106 C 
HETATM   26  O4  UNL     1      -1.925   2.627  -3.190  1.00  0.00    -0.264 OA
ENDBRANCH  23  24
ENDBRANCH  22  23
ENDBRANCH   5  22
TORSDOF 3
