REMARK  4 active torsions:
REMARK  status: ('A' for Active; 'I' for Inactive)
REMARK    1  A    between atoms: C3_3  and  C24_28 
REMARK    2  A    between atoms: C11_12  and  O2_19 
REMARK    3  A    between atoms: O2_19  and  C18_20 
REMARK    4  A    between atoms: C18_20  and  C19_22 
ROOT
HETATM    1  C1  UNL     1      -3.757  -0.021   1.765  1.00  0.00     0.001 C 
HETATM    2  C2  UNL     1      -3.604  -1.544   1.683  1.00  0.00     0.010 C 
HETATM    3  C3  UNL     1      -2.960  -2.037   0.364  1.00  0.00     0.079 C 
HETATM    4  C4  UNL     1      -1.623  -1.260   0.157  1.00  0.00     0.015 C 
HETATM    5  C5  UNL     1      -1.712   0.298   0.168  1.00  0.00     0.027 C 
HETATM    6  C6  UNL     1      -2.413   0.680   1.512  1.00  0.00     0.002 C 
HETATM    7  C7  UNL     1      -0.265   0.932   0.089  1.00  0.00     0.131 C 
HETATM    8  C8  UNL     1       0.761   0.301  -0.921  1.00  0.00     0.084 C 
HETATM    9  C9  UNL     1       0.697  -1.233  -0.872  1.00  0.00     0.157 C 
HETATM   10  C10 UNL     1      -0.731  -1.765  -0.990  1.00  0.00     0.034 C 
HETATM   11  O1  UNL     1       1.261  -1.736   0.317  1.00  0.00    -0.223 OA
HETATM   12  C11 UNL     1       2.182   0.962  -0.743  1.00  0.00     0.147 C 
HETATM   13  C12 UNL     1       2.159   2.121  -1.728  1.00  0.00    -0.017 C 
HETATM   14  C13 UNL     1       0.809   2.216  -2.377  1.00  0.00     0.021 C 
HETATM   15  C14 UNL     1      -0.184   3.000  -1.517  1.00  0.00     0.007 C 
HETATM   16  C15 UNL     1      -0.264   2.471  -0.075  1.00  0.00     0.031 C 
HETATM   17  C16 UNL     1       0.457   0.732  -2.378  1.00  0.00     0.012 C 
HETATM   18  C17 UNL     1       3.178   2.924  -2.061  1.00  0.00    -0.007 C 
HETATM   19  O4  UNL     1       0.302   0.710   1.365  1.00  0.00    -0.226 OA
HETATM   20  C23 UNL     1      -2.646   0.838  -0.941  1.00  0.00     0.003 C 
HETATM   21  C25 UNL     1      -2.715  -3.558   0.537  1.00  0.00     0.011 C 
ENDROOT
BRANCH  12  22
HETATM   22  O2  UNL     1       3.298   0.149  -1.032  1.00  0.00    -0.297 OA
BRANCH  22  23
HETATM   23  C18 UNL     1       3.678  -0.810  -0.127  1.00  0.00     0.292 C 
HETATM   24  O3  UNL     1       3.656  -1.958  -0.529  1.00  0.00    -0.260 OA
BRANCH  23  25
HETATM   25  C19 UNL     1       4.146  -0.668   1.152  1.00  0.00     0.037 C 
HETATM   26  C20 UNL     1       4.368  -1.957   1.936  1.00  0.00     0.036 C 
HETATM   27  C21 UNL     1       4.442   0.484   1.785  1.00  0.00    -0.025 C 
HETATM   28  C22 UNL     1       4.508   1.903   1.296  1.00  0.00     0.030 C 
ENDBRANCH  23  25
ENDBRANCH  22  23
ENDBRANCH  12  22
BRANCH   3  29
HETATM   29  C24 UNL     1      -3.888  -1.955  -0.848  1.00  0.00     0.184 C 
HETATM   30  O5  UNL     1      -3.569  -2.063  -2.008  1.00  0.00    -0.647 OA
HETATM   31  O6  UNL     1      -5.184  -1.792  -0.523  1.00  0.00    -0.647 OA
ENDBRANCH   3  29
TORSDOF 4
