REMARK  3 active torsions:
REMARK  status: ('A' for Active; 'I' for Inactive)
REMARK    1  A    between atoms: C3_3  and  C21_23 
REMARK    2  A    between atoms: C14_14  and  O1_15 
REMARK    3  A    between atoms: O1_15  and  C15_16 
ROOT
HETATM    1  C1  UNL     1       4.979  -1.142  -1.807  1.00  0.00     0.001 C 
HETATM    2  C2  UNL     1       5.875  -0.083  -1.155  1.00  0.00     0.010 C 
HETATM    3  C3  UNL     1       5.162   1.274  -0.932  1.00  0.00     0.078 C 
HETATM    4  C4  UNL     1       3.819   1.011  -0.193  1.00  0.00     0.010 C 
HETATM    5  C5  UNL     1       2.845  -0.058  -0.778  1.00  0.00     0.003 C 
HETATM    6  C6  UNL     1       3.682  -1.351  -1.007  1.00  0.00     0.000 C 
HETATM    7  C7  UNL     1       1.714  -0.337   0.285  1.00  0.00     0.028 C 
HETATM    8  C8  UNL     1       1.048   0.905   0.953  1.00  0.00     0.006 C 
HETATM    9  C9  UNL     1       2.074   1.982   1.337  1.00  0.00     0.000 C 
HETATM   10  C10 UNL     1       3.067   2.291   0.213  1.00  0.00     0.001 C 
HETATM   11  C11 UNL     1      -0.099   1.466   0.089  1.00  0.00     0.004 C 
HETATM   12  C12 UNL     1      -1.147   0.354   0.216  1.00  0.00     0.021 C 
HETATM   13  C13 UNL     1      -0.675  -0.855  -0.600  1.00  0.00     0.034 C 
HETATM   14  C14 UNL     1       0.670  -1.416  -0.107  1.00  0.00     0.124 C 
HETATM   15  C17 UNL     1      -1.077   0.041   1.687  1.00  0.00    -0.044 C 
HETATM   16  C18 UNL     1       0.253   0.494   2.225  1.00  0.00     0.022 C 
HETATM   17  C19 UNL     1      -2.030  -0.578   2.395  1.00  0.00    -0.009 C 
HETATM   18  C20 UNL     1       2.234   0.346  -2.137  1.00  0.00     0.000 C 
HETATM   19  C22 UNL     1       5.032   2.015  -2.279  1.00  0.00     0.011 C 
ENDROOT
BRANCH   3  20
HETATM   20  C21 UNL     1       6.071   2.082   0.021  1.00  0.00     0.184 C 
HETATM   21  O3  UNL     1       6.149   3.394  -0.289  1.00  0.00    -0.647 OA
HETATM   22  O4  UNL     1       6.652   1.608   0.973  1.00  0.00    -0.647 OA
ENDBRANCH   3  20
BRANCH  14  23
HETATM   23  O1  UNL     1       0.413  -2.242   1.002  1.00  0.00    -0.304 OA
BRANCH  23  24
HETATM   24  C15 UNL     1       0.673  -3.574   0.933  1.00  0.00     0.272 C 
HETATM   25  C16 UNL     1       0.275  -4.258   2.227  1.00  0.00     0.106 C 
HETATM   26  O2  UNL     1       1.143  -4.155  -0.018  1.00  0.00    -0.264 OA
ENDBRANCH  23  24
ENDBRANCH  14  23
TORSDOF 3
