REMARK  3 active torsions:
REMARK  status: ('A' for Active; 'I' for Inactive)
REMARK    1  A    between atoms: C7_7  and  C12_12 
REMARK    2  A    between atoms: C12_12  and  C13_13 
REMARK    3  A    between atoms: C13_13  and  C14_15 
ROOT
HETATM    1  C1  UNL     1      -2.434   2.297   0.841  1.00  0.00     0.000 C 
HETATM    2  C2  UNL     1      -1.230   2.982   1.491  1.00  0.00     0.000 C 
HETATM    3  C3  UNL     1      -0.438   2.030   2.413  1.00  0.00     0.000 C 
HETATM    4  C4  UNL     1      -0.112   0.703   1.657  1.00  0.00     0.005 C 
HETATM    5  C5  UNL     1      -1.205   0.028   0.771  1.00  0.00     0.004 C 
HETATM    6  C6  UNL     1      -1.958   1.122  -0.017  1.00  0.00     0.000 C 
HETATM    7  C7  UNL     1      -0.479  -0.962  -0.217  1.00  0.00     0.021 C 
HETATM    8  C8  UNL     1       0.430  -1.915   0.566  1.00  0.00    -0.048 C 
HETATM    9  C9  UNL     1       0.883  -1.611   1.795  1.00  0.00    -0.035 C 
HETATM   10  C10 UNL     1       0.555  -0.355   2.548  1.00  0.00     0.025 C 
HETATM   11  C11 UNL     1       0.919  -3.199  -0.069  1.00  0.00     0.026 C 
HETATM   12  C18 UNL     1      -2.229  -0.766   1.621  1.00  0.00     0.000 C 
HETATM   13  C19 UNL     1       0.882   2.764   2.779  1.00  0.00     0.000 C 
HETATM   14  C20 UNL     1      -1.199   1.861   3.748  1.00  0.00     0.000 C 
ENDROOT
BRANCH   7  15
HETATM   15  C12 UNL     1      -1.407  -1.680  -1.232  1.00  0.00     0.041 C 
BRANCH  15  16
HETATM   16  C13 UNL     1      -1.691  -0.974  -2.564  1.00  0.00     0.173 C 
HETATM   17  O1  UNL     1      -2.798  -1.611  -3.180  1.00  0.00    -0.219 OA
BRANCH  16  18
HETATM   18  C14 UNL     1      -0.588  -0.951  -3.586  1.00  0.00     0.021 A 
HETATM   19  C15 UNL     1      -0.662  -0.311  -4.765  1.00  0.00     0.065 A 
HETATM   20  C16 UNL     1       0.600  -0.637  -5.454  1.00  0.00     0.296 A 
HETATM   21  O2  UNL     1       1.411  -1.456  -4.726  1.00  0.00    -0.294 OA
HETATM   22  O3  UNL     1       0.881  -0.221  -6.572  1.00  0.00    -0.259 OA
HETATM   23  C17 UNL     1       0.716  -1.705  -3.507  1.00  0.00     0.177 A 
ENDBRANCH  16  18
ENDBRANCH  15  16
ENDBRANCH   7  15
TORSDOF 3
