REMARK  3 active torsions:
REMARK  status: ('A' for Active; 'I' for Inactive)
REMARK    1  A    between atoms: C3_3  and  C19_22 
REMARK    2  A    between atoms: C19_22  and  O4_23 
REMARK    3  A    between atoms: O4_23  and  C20_24 
ROOT
HETATM    1  C1  UNL     1       4.075  -2.082  -1.606  1.00  0.00     0.000 C 
HETATM    2  C2  UNL     1       4.947  -0.964  -1.029  1.00  0.00     0.002 C 
HETATM    3  C3  UNL     1       4.206   0.383  -0.814  1.00  0.00     0.028 C 
HETATM    4  C4  UNL     1       2.906   0.079  -0.001  1.00  0.00     0.002 C 
HETATM    5  C5  UNL     1       1.949  -1.036  -0.537  1.00  0.00     0.001 C 
HETATM    6  C6  UNL     1       2.812  -2.310  -0.763  1.00  0.00     0.000 C 
HETATM    7  C7  UNL     1       0.855  -1.346   0.551  1.00  0.00     0.009 C 
HETATM    8  C8  UNL     1       0.155  -0.123   1.205  1.00  0.00     0.087 C 
HETATM    9  C9  UNL     1       1.168   0.949   1.619  1.00  0.00     0.010 C 
HETATM   10  C10 UNL     1       2.111   1.313   0.467  1.00  0.00     0.001 C 
HETATM   11  C11 UNL     1      -1.010   0.383   0.345  1.00  0.00     0.166 C 
HETATM   12  C12 UNL     1      -2.043  -0.728   0.510  1.00  0.00     0.096 C 
HETATM   13  C13 UNL     1      -1.565  -1.954  -0.278  1.00  0.00     0.010 C 
HETATM   14  C14 UNL     1      -0.184  -2.447   0.204  1.00  0.00     0.001 C 
HETATM   15  C15 UNL     1      -1.984  -1.008   2.001  1.00  0.00     0.209 C 
HETATM   16  C16 UNL     1      -0.612  -0.629   2.436  1.00  0.00     0.209 C 
HETATM   17  O1  UNL     1      -0.158  -0.746   3.562  1.00  0.00    -0.288 OA
HETATM   18  O2  UNL     1      -2.882  -1.491   2.669  1.00  0.00    -0.288 OA
HETATM   19  O3  UNL     1      -1.546   1.571   0.877  1.00  0.00    -0.223 OA
HETATM   20  C17 UNL     1       1.284  -0.678  -1.883  1.00  0.00     0.000 C 
HETATM   21  C18 UNL     1       3.965   1.069  -2.176  1.00  0.00     0.003 C 
ENDROOT
BRANCH   3  22
HETATM   22  C19 UNL     1       5.203   1.281  -0.023  1.00  0.00     0.152 C 
BRANCH  22  23
HETATM   23  O4  UNL     1       4.891   2.644  -0.151  1.00  0.00    -0.302 OA
BRANCH  23  24
HETATM   24  C20 UNL     1       5.636   3.617   0.445  1.00  0.00     0.272 C 
HETATM   25  O5  UNL     1       5.347   4.792   0.362  1.00  0.00    -0.264 OA
HETATM   26  C21 UNL     1       6.864   3.156   1.210  1.00  0.00     0.106 C 
ENDBRANCH  23  24
ENDBRANCH  22  23
ENDBRANCH   3  22
TORSDOF 3
