REMARK  1 active torsions:
REMARK  status: ('A' for Active; 'I' for Inactive)
REMARK    1  A    between atoms: C3_3  and  C19_19 
ROOT
HETATM    1  C1  UNL     1      -2.164   0.220   2.330  1.00  0.00     0.065 C 
HETATM    2  C2  UNL     1      -2.188  -1.290   2.189  1.00  0.00     0.152 C 
HETATM    3  C3  UNL     1      -1.691  -1.910   0.873  1.00  0.00     0.082 C 
HETATM    4  C4  UNL     1      -0.328  -1.228   0.541  1.00  0.00     0.009 C 
HETATM    5  C5  UNL     1      -0.281   0.334   0.556  1.00  0.00     0.001 C 
HETATM    6  C6  UNL     1      -0.805   0.811   1.937  1.00  0.00     0.008 C 
HETATM    7  C7  UNL     1       1.211   0.794   0.429  1.00  0.00     0.000 C 
HETATM    8  C8  UNL     1       2.034   0.170  -0.721  1.00  0.00     0.000 C 
HETATM    9  C9  UNL     1       1.875  -1.352  -0.741  1.00  0.00     0.000 C 
HETATM   10  C10 UNL     1       0.406  -1.790  -0.694  1.00  0.00     0.001 C 
HETATM   11  C11 UNL     1       3.520   0.578  -0.537  1.00  0.00     0.000 C 
HETATM   12  C12 UNL     1       3.539   2.022  -1.004  1.00  0.00     0.000 A 
HETATM   13  C13 UNL     1       2.379   2.891  -0.585  1.00  0.00     0.000 A 
HETATM   14  C14 UNL     1       1.466   2.318   0.492  1.00  0.00     0.000 C 
HETATM   15  C15 UNL     1       2.381   2.232  -1.949  1.00  0.00     0.000 A 
HETATM   16  C16 UNL     1       1.742   0.855  -2.071  1.00  0.00     0.000 C 
HETATM   17  C17 UNL     1       4.867   2.689  -1.294  1.00  0.00     0.000 C 
HETATM   18  C18 UNL     1      -1.157   0.971  -0.549  1.00  0.00     0.000 C 
HETATM   19  C20 UNL     1      -2.804  -1.716  -0.176  1.00  0.00     0.010 C 
HETATM   20  O2  UNL     1      -2.625  -1.958   3.099  1.00  0.00    -0.296 OA
ENDROOT
BRANCH   3  21
HETATM   21  C19 UNL     1      -1.546  -3.435   1.111  1.00  0.00     0.189 C 
HETATM   22  O1  UNL     1      -1.515  -4.171  -0.097  1.00  0.00    -0.220 OA
ENDBRANCH   3  21
TORSDOF 1
