REMARK  4 active torsions:
REMARK  status: ('A' for Active; 'I' for Inactive)
REMARK    1  A    between atoms: C3_4  and  C12_14 
REMARK    2  A    between atoms: C4_5  and  C5_6 
REMARK    3  A    between atoms: C5_6  and  C6_7 
REMARK    4  A    between atoms: C12_14  and  C13_15 
ROOT
HETATM    1  C1  UNL     1      -1.137  -3.506   0.037  1.00  0.00     0.153 C 
HETATM    2  O1  UNL     1      -0.000  -3.750   0.819  1.00  0.00    -0.302 OA
HETATM    3  C2  UNL     1       0.757  -2.632   0.958  1.00  0.00     0.272 C 
HETATM    4  C3  UNL     1       0.103  -1.487   0.202  1.00  0.00     0.093 C 
HETATM    5  C4  UNL     1      -1.333  -1.993   0.014  1.00  0.00     0.044 C 
HETATM    6  O4  UNL     1       1.793  -2.582   1.583  1.00  0.00    -0.264 OA
ENDROOT
BRANCH   4   7
HETATM    7  C12 UNL     1       0.197  -0.130   0.920  1.00  0.00     0.036 C 
BRANCH   7   8
HETATM    8  C13 UNL     1       1.623   0.314   1.172  1.00  0.00    -0.020 A 
HETATM    9  C14 UNL     1       2.130   0.350   2.418  1.00  0.00    -0.004 A 
HETATM   10  C15 UNL     1       3.396   0.738   2.628  1.00  0.00     0.002 A 
HETATM   11  C16 UNL     1       4.166   1.099   1.592  1.00  0.00     0.027 A 
HETATM   12  C17 UNL     1       3.688   1.082   0.336  1.00  0.00     0.131 A 
HETATM   13  C18 UNL     1       2.416   0.686   0.152  1.00  0.00     0.023 A 
HETATM   14  O3  UNL     1       4.463   1.448  -0.720  1.00  0.00    -0.190 OA
ENDBRANCH   7   8
ENDBRANCH   4   7
BRANCH   5  15
HETATM   15  C5  UNL     1      -2.058  -1.525  -1.256  1.00  0.00     0.029 C 
BRANCH  15  16
HETATM   16  C6  UNL     1      -2.328  -0.036  -1.309  1.00  0.00    -0.020 A 
HETATM   17  C7  UNL     1      -1.841   0.724  -2.306  1.00  0.00     0.023 A 
HETATM   18  C8  UNL     1      -2.078   2.045  -2.387  1.00  0.00     0.131 A 
HETATM   19  C9  UNL     1      -2.825   2.610  -1.424  1.00  0.00     0.027 A 
HETATM   20  O2  UNL     1      -1.585   2.793  -3.411  1.00  0.00    -0.190 OA
HETATM   21  C10 UNL     1      -3.322   1.877  -0.417  1.00  0.00     0.002 A 
HETATM   22  C11 UNL     1      -3.078   0.559  -0.365  1.00  0.00    -0.004 A 
ENDBRANCH  15  16
ENDBRANCH   5  15
TORSDOF 4
