REMARK  1 active torsions:
REMARK  status: ('A' for Active; 'I' for Inactive)
REMARK    1  A    between atoms: C3_3  and  C18_22 
ROOT
HETATM    1  C1  UNL     1      -2.705  -2.439   0.281  1.00  0.00    -0.023 C 
HETATM    2  C2  UNL     1      -1.589  -2.848  -0.648  1.00  0.00     0.026 C 
HETATM    3  C3  UNL     1      -0.436  -1.820  -0.519  1.00  0.00     0.078 C 
HETATM    4  C4  UNL     1      -0.827  -0.313  -0.434  1.00  0.00     0.091 C 
HETATM    5  C5  UNL     1      -2.107  -0.139   0.393  1.00  0.00     0.175 C 
HETATM    6  C6  UNL     1      -2.909  -1.186   0.704  1.00  0.00     0.033 C 
HETATM    7  O1  UNL     1      -2.402   0.959   0.810  1.00  0.00    -0.291 OA
HETATM    8  C7  UNL     1      -1.008   0.301  -1.830  1.00  0.00     0.159 C 
HETATM    9  O2  UNL     1      -1.451   1.628  -1.817  1.00  0.00    -0.301 OA
HETATM   10  C8  UNL     1      -0.945   2.534  -0.945  1.00  0.00     0.278 C 
HETATM   11  C9  UNL     1       0.170   2.052  -0.018  1.00  0.00     0.130 C 
HETATM   12  C10 UNL     1       0.317   0.523   0.210  1.00  0.00     0.025 C 
HETATM   13  C11 UNL     1       0.618   0.207   1.692  1.00  0.00     0.001 C 
HETATM   14  C12 UNL     1       1.663   1.146   2.325  1.00  0.00     0.001 C 
HETATM   15  C13 UNL     1       1.561   2.607   1.847  1.00  0.00     0.008 C 
HETATM   16  C14 UNL     1       0.137   2.833   1.317  1.00  0.00     0.017 C 
HETATM   17  C15 UNL     1       2.405   2.972   0.606  1.00  0.00     0.058 C 
HETATM   18  C16 UNL     1       1.530   2.520  -0.546  1.00  0.00     0.158 C 
HETATM   19  O3  UNL     1       1.856   2.455  -1.708  1.00  0.00    -0.296 OA
HETATM   20  C17 UNL     1       3.835   2.428   0.545  1.00  0.00     0.008 C 
HETATM   21  O4  UNL     1      -1.333   3.683  -0.925  1.00  0.00    -0.264 OA
HETATM   22  C19 UNL     1      -1.077  -4.247  -0.226  1.00  0.00     0.005 C 
HETATM   23  C20 UNL     1      -2.205  -2.987  -2.055  1.00  0.00     0.005 C 
ENDROOT
BRANCH   3  24
HETATM   24  C18 UNL     1       0.705  -2.107  -1.489  1.00  0.00     0.208 C 
HETATM   25  O5  UNL     1       1.818  -2.373  -1.098  1.00  0.00    -0.288 OA
ENDBRANCH   3  24
TORSDOF 1
