REMARK  1 active torsions:
REMARK  status: ('A' for Active; 'I' for Inactive)
REMARK    1  A    between atoms: C13_14  and  O1_17 
ROOT
HETATM    1  C1  UNL     1      -2.754  -0.021   1.134  1.00  0.00     0.119 A 
HETATM    2  C2  UNL     1      -2.709  -1.356   1.147  1.00  0.00     0.119 A 
HETATM    3  C3  UNL     1      -1.541  -2.001   1.062  1.00  0.00     0.024 A 
HETATM    4  C4  UNL     1      -0.406  -1.284   0.953  1.00  0.00     0.009 A 
HETATM    5  C5  UNL     1      -0.452   0.066   0.919  1.00  0.00    -0.017 A 
HETATM    6  C6  UNL     1      -1.634   0.703   1.029  1.00  0.00     0.022 A 
HETATM    7  C7  UNL     1       0.850   0.839   0.795  1.00  0.00     0.069 C 
HETATM    8  C8  UNL     1       1.867   0.024  -0.013  1.00  0.00     0.230 C 
HETATM    9  N1  UNL     1       2.063  -1.126   0.852  1.00  0.00     0.140 N 
HETATM   10  C9  UNL     1       0.914  -2.019   0.835  1.00  0.00     0.276 C 
HETATM   11  C10 UNL     1       2.271  -0.519   2.168  1.00  0.00     0.251 C 
HETATM   12  C11 UNL     1       1.540   0.841   2.167  1.00  0.00     0.045 C 
HETATM   13  C12 UNL     1       1.374  -0.188  -1.451  1.00  0.00     0.068 C 
HETATM   14  C13 UNL     1       1.230   1.171  -2.156  1.00  0.00     0.139 C 
HETATM   15  C14 UNL     1       0.831   2.295  -1.216  1.00  0.00    -0.001 C 
HETATM   16  C15 UNL     1       0.683   2.165   0.111  1.00  0.00    -0.023 C 
HETATM   17  O2  UNL     1      -3.832  -1.841   1.247  1.00  0.00    -0.300 OA
HETATM   18  C17 UNL     1      -4.761  -0.757   1.304  1.00  0.00     0.304 A 
HETATM   19  O3  UNL     1      -3.909   0.387   1.228  1.00  0.00    -0.300 OA
ENDROOT
BRANCH  14  20
HETATM   20  O1  UNL     1       0.288   1.112  -3.206  1.00  0.00    -0.350 OA
HETATM   21  C16 UNL     1       0.692   0.299  -4.286  1.00  0.00     0.175 C 
ENDBRANCH  14  20
TORSDOF 1
