REMARK  6 active torsions:
REMARK  status: ('A' for Active; 'I' for Inactive)
REMARK    1  A    between atoms: C1_1  and  O5_26 
REMARK    2  A    between atoms: C2_2  and  C17_21 
REMARK    3  A    between atoms: C10_12  and  C13_15 
REMARK    4  A    between atoms: C17_21  and  C18_22 
REMARK    5  A    between atoms: O5_26  and  C22_27 
REMARK    6  A    between atoms: C22_27  and  C23_29 
ROOT
HETATM    1  C1  UNL     1      -1.169   1.115   1.321  1.00  0.00     0.143 A 
HETATM    2  C2  UNL     1      -1.294  -0.226   1.279  1.00  0.00     0.047 A 
HETATM    3  C3  UNL     1      -0.194  -1.012   1.165  1.00  0.00     0.192 A 
HETATM    4  C4  UNL     1       1.034  -0.456   1.016  1.00  0.00     0.042 A 
HETATM    5  C5  UNL     1       1.167   0.883   1.081  1.00  0.00     0.134 A 
HETATM    6  C6  UNL     1       0.070   1.673   1.229  1.00  0.00     0.240 A 
HETATM    7  O1  UNL     1       0.175   2.880   1.261  1.00  0.00    -0.282 OA
HETATM    8  O2  UNL     1       2.366   1.542   0.964  1.00  0.00    -0.333 OA
HETATM    9  C7  UNL     1       3.425   0.784   0.479  1.00  0.00     0.099 C 
HETATM   10  C8  UNL     1       3.201   0.566  -1.028  1.00  0.00     0.028 C 
HETATM   11  C9  UNL     1       3.461  -0.888  -1.420  1.00  0.00     0.005 C 
HETATM   12  C10 UNL     1       2.539  -1.873  -0.655  1.00  0.00     0.033 C 
HETATM   13  C11 UNL     1       2.249  -1.357   0.794  1.00  0.00     0.032 C 
HETATM   14  C12 UNL     1       3.458  -0.532   1.264  1.00  0.00     0.032 C 
HETATM   15  C16 UNL     1       4.714   1.571   0.739  1.00  0.00     0.030 C 
HETATM   16  O4  UNL     1      -0.312  -2.216   1.144  1.00  0.00    -0.287 OA
ENDROOT
BRANCH   1  17
HETATM   17  O5  UNL     1      -2.258   1.950   1.410  1.00  0.00    -0.273 OA
BRANCH  17  18
HETATM   18  C22 UNL     1      -2.274   2.782   2.489  1.00  0.00     0.276 C 
HETATM   19  O6  UNL     1      -2.063   2.389   3.615  1.00  0.00    -0.264 OA
BRANCH  18  20
HETATM   20  C23 UNL     1      -2.600   4.228   2.127  1.00  0.00     0.087 C 
HETATM   21  C24 UNL     1      -3.691   4.777   3.063  1.00  0.00     0.010 C 
HETATM   22  C25 UNL     1      -2.995   4.472   0.660  1.00  0.00     0.010 C 
ENDBRANCH  18  20
ENDBRANCH  17  18
ENDBRANCH   1  17
BRANCH   2  23
HETATM   23  C17 UNL     1      -2.652  -0.904   1.355  1.00  0.00     0.057 C 
BRANCH  23  24
HETATM   24  C18 UNL     1      -2.811  -1.987   0.313  1.00  0.00    -0.030 C 
HETATM   25  C19 UNL     1      -2.876  -1.803  -1.017  1.00  0.00    -0.048 C 
HETATM   26  C20 UNL     1      -2.973  -2.977  -1.963  1.00  0.00     0.026 C 
HETATM   27  C21 UNL     1      -2.862  -0.450  -1.685  1.00  0.00     0.026 C 
ENDBRANCH  23  24
ENDBRANCH   2  23
BRANCH  12  28
HETATM   28  C13 UNL     1       1.369  -2.497  -1.462  1.00  0.00     0.127 C 
HETATM   29  C14 UNL     1       1.036  -3.907  -0.945  1.00  0.00     0.033 C 
HETATM   30  C15 UNL     1       1.626  -2.641  -2.970  1.00  0.00     0.033 C 
HETATM   31  O3  UNL     1       0.220  -1.700  -1.346  1.00  0.00    -0.226 OA
ENDBRANCH  12  28
TORSDOF 6
