REMARK  3 active torsions:
REMARK  status: ('A' for Active; 'I' for Inactive)
REMARK    1  A    between atoms: C1_1  and  C11_13 
REMARK    2  A    between atoms: C5_5  and  O2_10 
REMARK    3  A    between atoms: C11_13  and  O4_15 
ROOT
HETATM    1  C1  UNL     1       1.076  -0.433  -0.098  1.00  0.00     0.030 C 
HETATM    2  C2  UNL     1       0.900   0.825   0.761  1.00  0.00     0.046 C 
HETATM    3  C3  UNL     1      -0.517   1.197   1.141  1.00  0.00    -0.020 C 
HETATM    4  C4  UNL     1      -1.720   0.598   1.079  1.00  0.00     0.020 C 
HETATM    5  C5  UNL     1      -2.337  -0.494   0.574  1.00  0.00     0.097 C 
HETATM    6  C6  UNL     1      -1.972  -1.353  -0.403  1.00  0.00     0.062 C 
HETATM    7  C7  UNL     1      -0.921  -1.448  -1.254  1.00  0.00     0.179 C 
HETATM    8  C8  UNL     1       0.184  -0.419  -1.337  1.00  0.00     0.097 C 
HETATM    9  O1  UNL     1      -0.875  -2.374  -2.038  1.00  0.00    -0.291 OA
HETATM   10  C10 UNL     1       1.626   2.074   0.228  1.00  0.00     0.009 C 
ENDROOT
BRANCH   1  11
HETATM   11  C11 UNL     1       2.523  -0.938  -0.182  1.00  0.00     0.289 C 
HETATM   12  O3  UNL     1       2.941  -1.641   0.717  1.00  0.00    -0.260 OA
BRANCH  11  13
HETATM   13  O4  UNL     1       3.339  -0.605  -1.223  1.00  0.00    -0.296 OA
HETATM   14  C12 UNL     1       3.033   0.268  -2.282  1.00  0.00     0.185 C 
ENDBRANCH  11  13
ENDBRANCH   1  11
BRANCH   5  15
HETATM   15  O2  UNL     1      -3.644  -0.677   1.005  1.00  0.00    -0.328 OA
HETATM   16  C9  UNL     1      -3.752  -1.460   2.174  1.00  0.00     0.181 C 
ENDBRANCH   5  15
TORSDOF 3
