REMARK  5 active torsions:
REMARK  status: ('A' for Active; 'I' for Inactive)
REMARK    1  A    between atoms: C14_17  and  C16_20 
REMARK    2  A    between atoms: C16_20  and  C17_21 
REMARK    3  A    between atoms: C17_21  and  O5_22 
REMARK    4  A    between atoms: O5_22  and  C18_23 
REMARK    5  A    between atoms: C18_23  and  C19_24 
ROOT
HETATM    1  C1  UNL     1      -3.998  -0.558   0.233  1.00  0.00     0.033 C 
HETATM    2  C2  UNL     1      -4.069  -1.838   1.063  1.00  0.00     0.003 C 
HETATM    3  C3  UNL     1      -3.440  -3.063   0.357  1.00  0.00     0.003 C 
HETATM    4  C4  UNL     1      -2.050  -2.721  -0.296  1.00  0.00     0.038 C 
HETATM    5  C5  UNL     1      -1.859  -1.319  -0.979  1.00  0.00     0.056 C 
HETATM    6  C6  UNL     1      -2.541  -0.242  -0.094  1.00  0.00     0.154 C 
HETATM    7  O1  UNL     1      -1.880  -0.065   1.139  1.00  0.00    -0.223 OA
HETATM    8  C7  UNL     1      -0.320  -1.054  -1.251  1.00  0.00     0.120 C 
HETATM    9  C8  UNL     1       0.310  -2.236  -2.046  1.00  0.00     0.143 A 
HETATM   10  C9  UNL     1      -0.226  -3.570  -1.950  1.00  0.00     0.172 A 
HETATM   11  C10 UNL     1      -1.550  -3.810  -1.254  1.00  0.00     0.182 C 
HETATM   12  O2  UNL     1      -1.458  -5.071  -0.610  1.00  0.00    -0.221 OA
HETATM   13  O3  UNL     1       0.829  -3.385  -1.045  1.00  0.00    -0.352 OA
HETATM   14  C11 UNL     1       1.248  -2.034  -3.233  1.00  0.00     0.035 C 
HETATM   15  C12 UNL     1      -0.082   0.302  -1.938  1.00  0.00     0.032 C 
HETATM   16  C13 UNL     1       1.329   0.688  -1.498  1.00  0.00     0.030 C 
HETATM   17  C14 UNL     1       1.451  -0.008  -0.140  1.00  0.00     0.095 C 
HETATM   18  O4  UNL     1       0.350  -0.869  -0.022  1.00  0.00    -0.361 OA
HETATM   19  C15 UNL     1       2.736  -0.834  -0.005  1.00  0.00     0.030 C 
HETATM   20  C23 UNL     1      -2.534  -1.251  -2.377  1.00  0.00     0.005 C 
HETATM   21  C24 UNL     1      -3.286  -4.122   1.488  1.00  0.00     0.000 C 
HETATM   22  C25 UNL     1      -4.489  -3.651  -0.618  1.00  0.00     0.000 C 
ENDROOT
BRANCH  17  23
HETATM   23  C16 UNL     1       1.381   1.030   1.002  1.00  0.00     0.060 C 
BRANCH  23  24
HETATM   24  C17 UNL     1       2.626   1.915   1.127  1.00  0.00     0.155 C 
BRANCH  24  25
HETATM   25  O5  UNL     1       2.342   3.030   1.935  1.00  0.00    -0.298 OA
BRANCH  25  26
HETATM   26  C18 UNL     1       3.247   4.063   1.917  1.00  0.00     0.295 C 
HETATM   27  O6  UNL     1       4.266   3.939   1.274  1.00  0.00    -0.259 OA
BRANCH  26  28
HETATM   28  C19 UNL     1       2.984   5.210   2.599  1.00  0.00     0.060 C 
HETATM   29  C20 UNL     1       3.725   6.332   2.682  1.00  0.00    -0.038 C 
HETATM   30  C21 UNL     1       3.255   7.492   3.534  1.00  0.00     0.026 C 
HETATM   31  C22 UNL     1       5.048   6.609   2.002  1.00  0.00     0.026 C 
ENDBRANCH  26  28
ENDBRANCH  25  26
ENDBRANCH  24  25
ENDBRANCH  23  24
ENDBRANCH  17  23
TORSDOF 5
