REMARK  7 active torsions:
REMARK  status: ('A' for Active; 'I' for Inactive)
REMARK    1  A    between atoms: C2_2  and  O5_25 
REMARK    2  A    between atoms: C3_3  and  C20_23 
REMARK    3  A    between atoms: C12_12  and  C15_15 
REMARK    4  A    between atoms: C15_15  and  C16_16 
REMARK    5  A    between atoms: C15_15  and  C17_18 
REMARK    6  A    between atoms: O5_25  and  C21_26 
REMARK    7  A    between atoms: C22_28  and  C26_35 
ROOT
HETATM    1  C1  UNL     1      -2.761  -0.203  -1.018  1.00  0.00     0.030 C 
HETATM    2  C2  UNL     1      -2.515  -1.631  -0.533  1.00  0.00     0.120 C 
HETATM    3  C3  UNL     1      -1.336  -2.236  -1.351  1.00  0.00     0.056 C 
HETATM    4  C4  UNL     1      -0.214  -1.174  -1.651  1.00  0.00     0.009 C 
HETATM    5  C5  UNL     1      -0.175   0.109  -0.772  1.00  0.00     0.004 C 
HETATM    6  C6  UNL     1      -1.595   0.728  -0.662  1.00  0.00     0.003 C 
HETATM    7  C7  UNL     1       0.766   1.168  -1.443  1.00  0.00     0.018 C 
HETATM    8  C8  UNL     1       2.118   0.580  -1.797  1.00  0.00    -0.049 C 
HETATM    9  C9  UNL     1       2.284  -0.743  -1.958  1.00  0.00    -0.035 C 
HETATM   10  C10 UNL     1       1.204  -1.768  -1.757  1.00  0.00     0.025 C 
HETATM   11  C11 UNL     1       3.261   1.529  -2.085  1.00  0.00     0.024 C 
HETATM   12  C12 UNL     1       3.352   2.631  -1.018  1.00  0.00     0.037 C 
HETATM   13  C13 UNL     1       2.017   3.397  -1.067  1.00  0.00     0.003 C 
HETATM   14  C14 UNL     1       0.883   2.467  -0.613  1.00  0.00     0.004 C 
HETATM   15  C18 UNL     1       0.417  -0.223   0.624  1.00  0.00     0.000 C 
HETATM   16  C19 UNL     1      -0.808  -3.517  -0.658  1.00  0.00     0.005 C 
ENDROOT
BRANCH   2  17
HETATM   17  O5  UNL     1      -2.260  -1.560   0.846  1.00  0.00    -0.332 OA
BRANCH  17  18
HETATM   18  C21 UNL     1      -2.857  -2.547   1.657  1.00  0.00     0.270 C 
HETATM   19  O6  UNL     1      -4.162  -2.139   2.006  1.00  0.00    -0.326 OA
HETATM   20  C22 UNL     1      -4.284  -1.140   2.984  1.00  0.00     0.184 C 
HETATM   21  C23 UNL     1      -3.459  -1.432   4.230  1.00  0.00     0.215 C 
HETATM   22  C24 UNL     1      -2.017  -1.776   3.921  1.00  0.00     0.220 C 
HETATM   23  O9  UNL     1      -4.035  -2.526   4.914  1.00  0.00    -0.218 OA
HETATM   24  C25 UNL     1      -1.985  -2.857   2.859  1.00  0.00     0.241 C 
HETATM   25  O8  UNL     1      -1.323  -0.638   3.474  1.00  0.00    -0.218 OA
HETATM   26  O7  UNL     1      -2.432  -4.066   3.431  1.00  0.00    -0.215 OA
BRANCH  20  27
HETATM   27  C26 UNL     1      -4.120   0.261   2.412  1.00  0.00     0.214 C 
HETATM   28  O10 UNL     1      -4.598   1.222   3.333  1.00  0.00    -0.218 OA
ENDBRANCH  20  27
ENDBRANCH  17  18
ENDBRANCH   2  17
BRANCH   3  29
HETATM   29  C20 UNL     1      -1.940  -2.732  -2.695  1.00  0.00     0.184 C 
HETATM   30  O4  UNL     1      -0.965  -3.324  -3.530  1.00  0.00    -0.221 OA
ENDBRANCH   3  29
BRANCH  12  31
HETATM   31  C15 UNL     1       4.613   3.515  -1.114  1.00  0.00     0.188 C 
HETATM   32  O3  UNL     1       4.535   4.513  -0.126  1.00  0.00    -0.221 OA
BRANCH  31  33
HETATM   33  C16 UNL     1       4.716   4.261  -2.438  1.00  0.00     0.215 C 
HETATM   34  O1  UNL     1       5.778   5.190  -2.346  1.00  0.00    -0.218 OA
ENDBRANCH  31  33
BRANCH  31  35
HETATM   35  C17 UNL     1       5.909   2.739  -0.857  1.00  0.00     0.215 C 
HETATM   36  O2  UNL     1       5.814   1.932   0.300  1.00  0.00    -0.218 OA
ENDBRANCH  31  35
ENDBRANCH  12  31
TORSDOF 7
