REMARK  4 active torsions:
REMARK  status: ('A' for Active; 'I' for Inactive)
REMARK    1  A    between atoms: C6_6  and  C7_7 
REMARK    2  A    between atoms: C7_7  and  C8_8 
REMARK    3  A    between atoms: C18_20  and  C21_24 
REMARK    4  A    between atoms: C21_24  and  C22_25 
ROOT
HETATM    1  C1  UNL     1      -4.288   0.261   0.500  1.00  0.00     0.129 A 
HETATM    2  C2  UNL     1      -4.317  -1.076   0.392  1.00  0.00     0.027 A 
HETATM    3  C3  UNL     1      -3.211  -1.804   0.582  1.00  0.00     0.002 A 
HETATM    4  C4  UNL     1      -2.048  -1.204   0.877  1.00  0.00     0.028 A 
HETATM    5  C5  UNL     1      -1.994   0.138   1.019  1.00  0.00     0.091 A 
HETATM    6  C6  UNL     1      -3.120   0.862   0.815  1.00  0.00     0.030 A 
HETATM    7  O1  UNL     1      -0.805   0.765   1.293  1.00  0.00    -0.331 OA
HETATM    8  C12 UNL     1       0.323   0.161   0.728  1.00  0.00     0.156 C 
HETATM    9  C13 UNL     1       0.476  -1.258   1.253  1.00  0.00     0.086 C 
HETATM   10  C14 UNL     1      -0.823  -2.064   1.075  1.00  0.00     0.152 C 
HETATM   11  O2  UNL     1      -0.588  -2.966  -0.011  1.00  0.00    -0.329 OA
HETATM   12  C15 UNL     1       0.597  -2.961  -0.338  1.00  0.00     0.093 A 
HETATM   13  C16 UNL     1       1.331  -2.066   0.324  1.00  0.00     0.005 A 
HETATM   14  C17 UNL     1       2.637  -1.935   0.068  1.00  0.00    -0.004 A 
HETATM   15  C18 UNL     1       3.217  -2.711  -0.867  1.00  0.00     0.007 A 
HETATM   16  C19 UNL     1       2.478  -3.619  -1.546  1.00  0.00     0.129 A 
HETATM   17  C20 UNL     1       1.164  -3.732  -1.274  1.00  0.00     0.051 A 
HETATM   18  O3  UNL     1       3.022  -4.395  -2.524  1.00  0.00    -0.190 OA
HETATM   19  O4  UNL     1      -5.428   0.972   0.272  1.00  0.00    -0.190 OA
ENDROOT
BRANCH   6  20
HETATM   20  C7  UNL     1      -3.089   2.381   0.919  1.00  0.00     0.056 C 
BRANCH  20  21
HETATM   21  C8  UNL     1      -4.075   2.883   1.946  1.00  0.00    -0.030 C 
HETATM   22  C9  UNL     1      -5.064   3.776   1.761  1.00  0.00    -0.048 C 
HETATM   23  C10 UNL     1      -5.994   4.150   2.893  1.00  0.00     0.026 C 
HETATM   24  C11 UNL     1      -5.372   4.484   0.462  1.00  0.00     0.026 C 
ENDBRANCH  20  21
ENDBRANCH   6  20
BRANCH  15  25
HETATM   25  C21 UNL     1       4.697  -2.506  -1.136  1.00  0.00     0.054 C 
BRANCH  25  26
HETATM   26  C22 UNL     1       4.910  -1.214  -1.883  1.00  0.00    -0.030 C 
HETATM   27  C23 UNL     1       6.011  -0.442  -1.838  1.00  0.00    -0.048 C 
HETATM   28  C24 UNL     1       6.090   0.856  -2.609  1.00  0.00     0.026 C 
HETATM   29  C25 UNL     1       7.249  -0.770  -1.039  1.00  0.00     0.026 C 
ENDBRANCH  25  26
ENDBRANCH  15  25
TORSDOF 4
