REMARK  4 active torsions:
REMARK  status: ('A' for Active; 'I' for Inactive)
REMARK    1  A    between atoms: C7_8  and  C10_12 
REMARK    2  A    between atoms: C12_14  and  C17_21 
REMARK    3  A    between atoms: C13_15  and  O4_19 
REMARK    4  A    between atoms: C17_21  and  C18_22 
ROOT
HETATM    1  C10 UNL     1      -0.176  -0.620  -0.338  1.00  0.00     0.007 A 
HETATM    2  C11 UNL     1       0.460  -0.427   0.827  1.00  0.00    -0.004 A 
HETATM    3  C12 UNL     1       1.512   0.404   0.942  1.00  0.00     0.006 A 
HETATM    4  C13 UNL     1       1.929   1.107  -0.136  1.00  0.00     0.116 A 
HETATM    5  C14 UNL     1       1.347   0.866  -1.330  1.00  0.00     0.153 A 
HETATM    6  C15 UNL     1       0.300   0.030  -1.410  1.00  0.00     0.028 A 
HETATM    7  O3  UNL     1       1.779   1.500  -2.457  1.00  0.00    -0.188 OA
ENDROOT
BRANCH   1   8
HETATM    8  C7  UNL     1      -1.387  -1.530  -0.446  1.00  0.00     0.151 C 
HETATM    9  O1  UNL     1      -2.462  -0.835  -1.020  1.00  0.00    -0.328 OA
HETATM   10  C5  UNL     1      -3.589  -1.587  -1.229  1.00  0.00     0.099 A 
HETATM   11  C4  UNL     1      -3.572  -2.926  -1.403  1.00  0.00     0.057 A 
HETATM   12  C6  UNL     1      -4.791  -0.980  -1.195  1.00  0.00     0.052 A 
HETATM   13  C3  UNL     1      -4.726  -3.598  -1.565  1.00  0.00     0.007 A 
HETATM   14  C9  UNL     1      -2.388  -3.597  -1.437  1.00  0.00     0.178 C 
HETATM   15  C2  UNL     1      -5.902  -2.955  -1.541  1.00  0.00     0.028 A 
HETATM   16  C1  UNL     1      -5.956  -1.627  -1.353  1.00  0.00     0.133 A 
HETATM   17  O5  UNL     1      -7.140  -0.959  -1.315  1.00  0.00    -0.190 OA
HETATM   18  C8  UNL     1      -1.115  -2.783  -1.267  1.00  0.00     0.104 C 
HETATM   19  O2  UNL     1      -2.300  -4.794  -1.604  1.00  0.00    -0.291 OA
ENDBRANCH   1   8
BRANCH   3  20
HETATM   20  C17 UNL     1       2.156   0.571   2.311  1.00  0.00     0.054 C 
BRANCH  20  21
HETATM   21  C18 UNL     1       3.664   0.578   2.288  1.00  0.00    -0.030 C 
HETATM   22  C19 UNL     1       4.484   1.497   2.832  1.00  0.00    -0.048 C 
HETATM   23  C20 UNL     1       5.984   1.390   2.677  1.00  0.00     0.026 C 
HETATM   24  C21 UNL     1       4.038   2.712   3.611  1.00  0.00     0.026 C 
ENDBRANCH  20  21
ENDBRANCH   3  20
BRANCH   4  25
HETATM   25  O4  UNL     1       3.012   1.950  -0.074  1.00  0.00    -0.326 OA
HETATM   26  C16 UNL     1       2.676   3.300   0.150  1.00  0.00     0.181 C 
ENDBRANCH   4  25
TORSDOF 4
