REMARK  5 active torsions:
REMARK  status: ('A' for Active; 'I' for Inactive)
REMARK    1  A    between atoms: C4_4  and  C7_8 
REMARK    2  A    between atoms: C8_9  and  C9_10 
REMARK    3  A    between atoms: C12_15  and  C17_21 
REMARK    4  A    between atoms: C13_16  and  O4_19 
REMARK    5  A    between atoms: C17_21  and  C18_22 
ROOT
HETATM    1  C7  UNL     1       1.284  -1.248  -0.126  1.00  0.00     0.105 A 
HETATM    2  C8  UNL     1       1.137  -2.311   0.707  1.00  0.00     0.067 A 
HETATM    3  C10 UNL     1      -0.052  -2.135   1.304  1.00  0.00     0.028 A 
HETATM    4  C11 UNL     1      -0.529  -1.017   0.760  1.00  0.00     0.098 A 
HETATM    5  O3  UNL     1       0.262  -0.550  -0.053  1.00  0.00    -0.307 OA
HETATM    6  C12 UNL     1      -1.729  -0.507   1.084  1.00  0.00     0.027 A 
HETATM    7  C13 UNL     1      -2.486  -1.149   2.006  1.00  0.00     0.092 A 
HETATM    8  C14 UNL     1      -1.982  -2.283   2.542  1.00  0.00     0.024 A 
HETATM    9  C15 UNL     1      -0.783  -2.792   2.210  1.00  0.00     0.004 A 
ENDROOT
BRANCH   1  10
HETATM   10  C4  UNL     1       2.260  -0.835  -0.978  1.00  0.00     0.048 A 
HETATM   11  C3  UNL     1       3.501  -1.363  -1.012  1.00  0.00     0.006 A 
HETATM   12  C2  UNL     1       4.465  -0.951  -1.848  1.00  0.00     0.028 A 
HETATM   13  C1  UNL     1       4.240   0.042  -2.717  1.00  0.00     0.133 A 
HETATM   14  C6  UNL     1       3.018   0.588  -2.683  1.00  0.00     0.055 A 
HETATM   15  O5  UNL     1       5.199   0.485  -3.573  1.00  0.00    -0.190 OA
HETATM   16  C5  UNL     1       2.042   0.189  -1.846  1.00  0.00     0.135 A 
HETATM   17  O1  UNL     1       0.850   0.845  -1.967  1.00  0.00    -0.190 OA
ENDBRANCH   1  10
BRANCH   2  18
HETATM   18  C9  UNL     1       1.918  -3.395   0.944  1.00  0.00     0.236 C 
HETATM   19  O2  UNL     1       1.655  -4.268   1.737  1.00  0.00    -0.283 OA
ENDBRANCH   2  18
BRANCH   6  20
HETATM   20  C17 UNL     1      -2.203   0.762   0.397  1.00  0.00     0.056 C 
BRANCH  20  21
HETATM   21  C18 UNL     1      -1.226   1.900   0.551  1.00  0.00    -0.030 C 
HETATM   22  C19 UNL     1      -1.018   2.896  -0.330  1.00  0.00    -0.048 C 
HETATM   23  C20 UNL     1       0.024   3.960  -0.072  1.00  0.00     0.026 C 
HETATM   24  C21 UNL     1      -1.765   3.057  -1.631  1.00  0.00     0.026 C 
ENDBRANCH  20  21
ENDBRANCH   6  20
BRANCH   7  25
HETATM   25  O4  UNL     1      -3.718  -0.629   2.333  1.00  0.00    -0.328 OA
HETATM   26  C16 UNL     1      -4.541  -1.318   3.245  1.00  0.00     0.181 C 
ENDBRANCH   7  25
TORSDOF 5
