REMARK  2 active torsions:
REMARK  status: ('A' for Active; 'I' for Inactive)
REMARK    1  A    between atoms: C15_17  and  C16_18 
REMARK    2  A    between atoms: C16_18  and  C17_19 
ROOT
HETATM    1  C1  UNL     1       5.355   1.365   0.209  1.00  0.00     0.133 A 
HETATM    2  C2  UNL     1       4.672   0.211   0.248  1.00  0.00     0.028 A 
HETATM    3  C3  UNL     1       3.334   0.206   0.168  1.00  0.00     0.006 A 
HETATM    4  C4  UNL     1       2.651   1.358   0.047  1.00  0.00     0.045 A 
HETATM    5  C5  UNL     1       3.303   2.542  -0.002  1.00  0.00     0.098 A 
HETATM    6  C6  UNL     1       4.647   2.499   0.084  1.00  0.00     0.052 A 
HETATM    7  O1  UNL     1       2.703   3.775  -0.129  1.00  0.00    -0.326 OA
HETATM    8  C7  UNL     1       1.291   3.854  -0.169  1.00  0.00     0.177 A 
HETATM    9  C8  UNL     1       0.646   2.514  -0.135  1.00  0.00     0.033 A 
HETATM   10  C9  UNL     1       1.312   1.361  -0.031  1.00  0.00     0.100 A 
HETATM   11  O2  UNL     1       0.540   0.399  -0.015  1.00  0.00    -0.307 OA
HETATM   12  C10 UNL     1      -0.618   0.815  -0.104  1.00  0.00     0.102 A 
HETATM   13  C11 UNL     1      -0.637   2.150  -0.184  1.00  0.00     0.023 A 
HETATM   14  C12 UNL     1      -1.773   2.839  -0.286  1.00  0.00     0.004 A 
HETATM   15  C13 UNL     1      -2.900   2.112  -0.306  1.00  0.00     0.028 A 
HETATM   16  C14 UNL     1      -2.913   0.764  -0.228  1.00  0.00     0.133 A 
HETATM   17  C15 UNL     1      -1.748   0.080  -0.123  1.00  0.00     0.048 A 
HETATM   18  O3  UNL     1      -4.133   0.164  -0.260  1.00  0.00    -0.190 OA
HETATM   19  O4  UNL     1       6.713   1.396   0.289  1.00  0.00    -0.190 OA
ENDROOT
BRANCH  17  20
HETATM   20  C16 UNL     1      -1.572  -1.430  -0.025  1.00  0.00     0.003 C 
BRANCH  20  21
HETATM   21  C17 UNL     1      -2.725  -2.403  -0.015  1.00  0.00    -0.008 C 
HETATM   22  C18 UNL     1      -2.605  -3.740   0.086  1.00  0.00    -0.044 C 
HETATM   23  C19 UNL     1      -3.818  -4.641   0.085  1.00  0.00     0.026 C 
HETATM   24  C20 UNL     1      -1.287  -4.465   0.208  1.00  0.00     0.026 C 
ENDBRANCH  20  21
ENDBRANCH  17  20
TORSDOF 2
