REMARK  2 active torsions:
REMARK  status: ('A' for Active; 'I' for Inactive)
REMARK    1  A    between atoms: C6_6  and  C7_7 
REMARK    2  A    between atoms: C7_7  and  C8_8 
ROOT
HETATM    1  C1  UNL     1       2.233  -0.790   0.862  1.00  0.00     0.129 A 
HETATM    2  C2  UNL     1       1.698  -2.018   0.926  1.00  0.00     0.027 A 
HETATM    3  C3  UNL     1       0.396  -2.213   0.684  1.00  0.00     0.006 A 
HETATM    4  C4  UNL     1      -0.395  -1.173   0.376  1.00  0.00     0.045 A 
HETATM    5  C5  UNL     1       0.114   0.077   0.276  1.00  0.00     0.095 A 
HETATM    6  C6  UNL     1       1.433   0.247   0.532  1.00  0.00     0.030 A 
HETATM    7  O1  UNL     1      -0.641   1.182  -0.054  1.00  0.00    -0.326 OA
HETATM    8  C12 UNL     1      -2.051   1.085  -0.084  1.00  0.00     0.177 C 
HETATM    9  C13 UNL     1      -2.513  -0.327  -0.070  1.00  0.00     0.033 A 
HETATM   10  C14 UNL     1      -1.704  -1.367   0.153  1.00  0.00     0.100 A 
HETATM   11  O2  UNL     1      -2.330  -2.431   0.160  1.00  0.00    -0.307 OA
HETATM   12  C15 UNL     1      -3.517  -2.175  -0.055  1.00  0.00     0.102 A 
HETATM   13  C16 UNL     1      -3.727  -0.864  -0.213  1.00  0.00     0.023 A 
HETATM   14  C17 UNL     1      -4.942  -0.360  -0.443  1.00  0.00     0.004 A 
HETATM   15  C18 UNL     1      -5.961  -1.233  -0.513  1.00  0.00     0.028 A 
HETATM   16  C19 UNL     1      -5.784  -2.561  -0.359  1.00  0.00     0.133 A 
HETATM   17  C20 UNL     1      -4.543  -3.033  -0.125  1.00  0.00     0.052 A 
HETATM   18  O3  UNL     1      -6.848  -3.407  -0.433  1.00  0.00    -0.190 OA
HETATM   19  O4  UNL     1       3.560  -0.620   1.117  1.00  0.00    -0.190 OA
ENDROOT
BRANCH   6  20
HETATM   20  C7  UNL     1       2.058   1.633   0.452  1.00  0.00     0.056 C 
BRANCH  20  21
HETATM   21  C8  UNL     1       3.099   1.679  -0.640  1.00  0.00    -0.030 C 
HETATM   22  C9  UNL     1       4.346   2.175  -0.550  1.00  0.00    -0.048 C 
HETATM   23  C10 UNL     1       5.291   2.120  -1.728  1.00  0.00     0.026 C 
HETATM   24  C11 UNL     1       4.934   2.830   0.677  1.00  0.00     0.026 C 
ENDBRANCH  20  21
ENDBRANCH   6  20
TORSDOF 2
