REMARK  3 active torsions:
REMARK  status: ('A' for Active; 'I' for Inactive)
REMARK    1  A    between atoms: C14_16  and  O3_23 
REMARK    2  A    between atoms: C15_17  and  C16_18 
REMARK    3  A    between atoms: C16_18  and  C17_19 
ROOT
HETATM    1  C1  UNL     1       2.736  -3.212   0.792  1.00  0.00     0.096 A 
HETATM    2  C2  UNL     1       1.399  -3.144   0.941  1.00  0.00     0.022 A 
HETATM    3  C3  UNL     1       0.805  -1.957   1.150  1.00  0.00     0.002 A 
HETATM    4  C4  UNL     1       1.509  -0.815   1.215  1.00  0.00     0.030 A 
HETATM    5  C5  UNL     1       2.849  -0.849   1.084  1.00  0.00     0.095 A 
HETATM    6  C6  UNL     1       3.412  -2.049   0.858  1.00  0.00     0.048 A 
HETATM    7  O1  UNL     1       3.632   0.276   1.117  1.00  0.00    -0.328 OA
HETATM    8  C7  UNL     1       2.987   1.459   0.731  1.00  0.00     0.186 C 
HETATM    9  C8  UNL     1       1.742   1.680   1.563  1.00  0.00     0.204 C 
HETATM   10  C9  UNL     1       0.798   0.483   1.503  1.00  0.00     0.180 C 
HETATM   11  O2  UNL     1      -0.221   0.845   0.566  1.00  0.00    -0.326 OA
HETATM   12  C10 UNL     1      -0.243   2.065   0.385  1.00  0.00     0.095 A 
HETATM   13  C11 UNL     1       0.810   2.670   0.941  1.00  0.00     0.033 A 
HETATM   14  C12 UNL     1       0.956   3.992   0.867  1.00  0.00     0.002 A 
HETATM   15  C13 UNL     1       0.000   4.677   0.223  1.00  0.00     0.024 A 
HETATM   16  C14 UNL     1      -1.074   4.099  -0.363  1.00  0.00     0.096 A 
HETATM   17  C15 UNL     1      -1.194   2.747  -0.285  1.00  0.00     0.044 A 
HETATM   18  O4  UNL     1       2.055   2.050   2.883  1.00  0.00    -0.216 OA
HETATM   19  C22 UNL     1       0.667  -4.268   0.899  1.00  0.00    -0.000 C 
HETATM   20  C23 UNL     1       1.256  -5.446   0.669  1.00  0.00     0.001 C 
HETATM   21  C24 UNL     1       2.734  -5.571   0.398  1.00  0.00     0.117 C 
HETATM   22  O5  UNL     1       3.437  -4.370   0.581  1.00  0.00    -0.332 OA
HETATM   23  C25 UNL     1       3.334  -6.611   1.353  1.00  0.00     0.035 C 
HETATM   24  C26 UNL     1       2.927  -6.021  -1.055  1.00  0.00     0.035 C 
ENDROOT
BRANCH  17  25
HETATM   25  C16 UNL     1      -2.314   1.896  -0.881  1.00  0.00     0.003 C 
BRANCH  25  26
HETATM   26  C17 UNL     1      -3.533   2.449  -1.579  1.00  0.00    -0.008 C 
HETATM   27  C18 UNL     1      -4.608   1.726  -1.947  1.00  0.00    -0.044 C 
HETATM   28  C19 UNL     1      -5.781   2.366  -2.657  1.00  0.00     0.026 C 
HETATM   29  C20 UNL     1      -4.755   0.240  -1.719  1.00  0.00     0.026 C 
ENDBRANCH  25  26
ENDBRANCH  17  25
BRANCH  16  30
HETATM   30  O3  UNL     1      -2.031   4.839  -1.012  1.00  0.00    -0.328 OA
HETATM   31  C21 UNL     1      -1.950   6.245  -1.034  1.00  0.00     0.181 C 
ENDBRANCH  16  30
TORSDOF 3
