REMARK  6 active torsions:
REMARK  status: ('A' for Active; 'I' for Inactive)
REMARK    1  A    between atoms: C2_2  and  C21_26 
REMARK    2  A    between atoms: C6_6  and  C7_7 
REMARK    3  A    between atoms: C7_7  and  C8_8 
REMARK    4  A    between atoms: C13_14  and  C15_17 
REMARK    5  A    between atoms: C21_26  and  C22_27 
REMARK    6  A    between atoms: C22_27  and  C23_28 
ROOT
HETATM    1  C1  UNL     1      -2.030   0.528  -0.569  1.00  0.00     0.127 A 
HETATM    2  C2  UNL     1      -1.510   1.772  -0.550  1.00  0.00     0.031 A 
HETATM    3  C3  UNL     1      -0.179   1.940  -0.378  1.00  0.00     0.134 A 
HETATM    4  C4  UNL     1       0.620   0.865  -0.191  1.00  0.00     0.087 A 
HETATM    5  C5  UNL     1       0.097  -0.375  -0.180  1.00  0.00     0.103 A 
HETATM    6  C6  UNL     1      -1.227  -0.541  -0.386  1.00  0.00     0.030 A 
HETATM    7  O1  UNL     1       0.878  -1.462   0.056  1.00  0.00    -0.305 OA
HETATM    8  C12 UNL     1       2.216  -1.262   0.130  1.00  0.00     0.126 A 
HETATM    9  C13 UNL     1       2.807  -0.051   0.116  1.00  0.00     0.066 A 
HETATM   10  C14 UNL     1       1.967   1.020  -0.010  1.00  0.00     0.202 A 
HETATM   11  O2  UNL     1       2.421   2.133   0.118  1.00  0.00    -0.286 OA
HETATM   12  O5  UNL     1       0.328   3.207  -0.426  1.00  0.00    -0.190 OA
HETATM   13  O7  UNL     1      -3.365   0.335  -0.743  1.00  0.00    -0.191 OA
ENDROOT
BRANCH   9  14
HETATM   14  C15 UNL     1       4.168   0.053   0.149  1.00  0.00     0.031 A 
HETATM   15  C16 UNL     1       4.880  -0.934   0.745  1.00  0.00     0.004 A 
HETATM   16  C17 UNL     1       6.215  -0.933   0.868  1.00  0.00     0.028 A 
HETATM   17  C18 UNL     1       6.945   0.074   0.376  1.00  0.00     0.133 A 
HETATM   18  C19 UNL     1       6.261   1.039  -0.250  1.00  0.00     0.055 A 
HETATM   19  O4  UNL     1       8.301   0.107   0.471  1.00  0.00    -0.190 OA
HETATM   20  C20 UNL     1       4.919   1.062  -0.368  1.00  0.00     0.133 A 
HETATM   21  O3  UNL     1       4.432   2.075  -1.140  1.00  0.00    -0.190 OA
ENDBRANCH   9  14
BRANCH   6  22
HETATM   22  C7  UNL     1      -1.851  -1.935  -0.373  1.00  0.00     0.056 C 
BRANCH  22  23
HETATM   23  C8  UNL     1      -1.012  -3.070  -0.906  1.00  0.00    -0.030 C 
HETATM   24  C9  UNL     1      -0.898  -4.306  -0.387  1.00  0.00    -0.048 C 
HETATM   25  C10 UNL     1      -0.004  -5.341  -1.031  1.00  0.00     0.026 C 
HETATM   26  C11 UNL     1      -1.618  -4.801   0.846  1.00  0.00     0.026 C 
ENDBRANCH  22  23
ENDBRANCH   6  22
BRANCH   2  27
HETATM   27  C21 UNL     1      -2.370   3.027  -0.718  1.00  0.00     0.068 C 
BRANCH  27  28
HETATM   28  C22 UNL     1      -3.872   3.017  -0.414  1.00  0.00     0.175 C 
HETATM   29  O6  UNL     1      -4.349   4.347  -0.542  1.00  0.00    -0.219 OA
BRANCH  28  30
HETATM   30  C23 UNL     1      -4.288   2.517   0.955  1.00  0.00    -0.014 C 
HETATM   31  C24 UNL     1      -5.736   2.106   1.087  1.00  0.00     0.029 C 
HETATM   32  C25 UNL     1      -3.453   2.441   2.003  1.00  0.00    -0.007 C 
ENDBRANCH  28  30
ENDBRANCH  27  28
ENDBRANCH   2  27
TORSDOF 6
