REMARK  3 active torsions:
REMARK  status: ('A' for Active; 'I' for Inactive)
REMARK    1  A    between atoms: C9_11  and  C10_12 
REMARK    2  A    between atoms: C10_12  and  C11_13 
REMARK    3  A    between atoms: C16_19  and  C18_22 
ROOT
HETATM    1  C1  UNL     1       3.225  -1.329  -0.492  1.00  0.00     0.127 C 
HETATM    2  O1  UNL     1       2.687  -0.168   0.051  1.00  0.00    -0.334 OA
HETATM    3  C2  UNL     1       1.328  -0.075   0.216  1.00  0.00     0.090 A 
HETATM    4  C3  UNL     1       0.519  -1.152   0.192  1.00  0.00     0.025 A 
HETATM    5  C4  UNL     1       1.111  -2.540   0.045  1.00  0.00     0.066 C 
HETATM    6  C5  UNL     1       2.619  -2.518   0.239  1.00  0.00     0.182 C 
HETATM    7  O2  UNL     1       3.171  -3.732  -0.215  1.00  0.00    -0.221 OA
HETATM    8  C6  UNL     1      -0.820  -1.040   0.302  1.00  0.00     0.103 A 
HETATM    9  C7  UNL     1      -1.377   0.176   0.439  1.00  0.00     0.087 A 
HETATM   10  C8  UNL     1      -0.588   1.275   0.475  1.00  0.00     0.134 A 
HETATM   11  C9  UNL     1       0.753   1.139   0.359  1.00  0.00     0.030 A 
HETATM   12  O3  UNL     1      -1.082   2.549   0.549  1.00  0.00    -0.190 OA
HETATM   13  C15 UNL     1      -2.738   0.259   0.537  1.00  0.00     0.202 A 
HETATM   14  C16 UNL     1      -3.543  -0.840   0.419  1.00  0.00     0.066 A 
HETATM   15  C17 UNL     1      -2.913  -2.023   0.278  1.00  0.00     0.126 A 
HETATM   16  O4  UNL     1      -1.568  -2.177   0.287  1.00  0.00    -0.305 OA
HETATM   17  O7  UNL     1      -3.240   1.321   0.815  1.00  0.00    -0.286 OA
HETATM   18  C24 UNL     1       4.739  -1.270  -0.234  1.00  0.00     0.033 C 
HETATM   19  C25 UNL     1       2.985  -1.337  -2.007  1.00  0.00     0.033 C 
ENDROOT
BRANCH  14  20
HETATM   20  C18 UNL     1      -4.905  -0.771   0.362  1.00  0.00     0.031 A 
HETATM   21  C19 UNL     1      -5.628  -1.854   0.735  1.00  0.00     0.004 A 
HETATM   22  C20 UNL     1      -6.968  -1.893   0.756  1.00  0.00     0.028 A 
HETATM   23  C21 UNL     1      -7.689  -0.831   0.379  1.00  0.00     0.133 A 
HETATM   24  C22 UNL     1      -6.989   0.233  -0.034  1.00  0.00     0.055 A 
HETATM   25  O6  UNL     1      -9.048  -0.836   0.377  1.00  0.00    -0.190 OA
HETATM   26  C23 UNL     1      -5.644   0.295  -0.045  1.00  0.00     0.133 A 
HETATM   27  O5  UNL     1      -5.123   1.423  -0.608  1.00  0.00    -0.190 OA
ENDBRANCH  14  20
BRANCH  11  28
HETATM   28  C10 UNL     1       1.594   2.416   0.352  1.00  0.00     0.056 C 
BRANCH  28  29
HETATM   29  C11 UNL     1       3.029   2.321   0.808  1.00  0.00    -0.030 C 
HETATM   30  C12 UNL     1       4.101   2.890   0.227  1.00  0.00    -0.048 C 
HETATM   31  C13 UNL     1       5.492   2.675   0.778  1.00  0.00     0.026 C 
HETATM   32  C14 UNL     1       4.057   3.778  -0.995  1.00  0.00     0.026 C 
ENDBRANCH  28  29
ENDBRANCH  11  28
TORSDOF 3
