REMARK  8 active torsions:
REMARK  status: ('A' for Active; 'I' for Inactive)
REMARK    1  A    between atoms: C1_1  and  O7_27 
REMARK    2  A    between atoms: C2_2  and  O6_25 
REMARK    3  A    between atoms: C3_3  and  O5_23 
REMARK    4  A    between atoms: C5_5  and  C7_7 
REMARK    5  A    between atoms: C7_7  and  O1_8 
REMARK    6  A    between atoms: O1_8  and  C8_9 
REMARK    7  A    between atoms: C11_12  and  O2_18 
REMARK    8  A    between atoms: O2_18  and  C16_19 
ROOT
HETATM    1  C7  UNL     1       0.223  -0.348   1.581  1.00  0.00     0.296 C 
HETATM    2  O4  UNL     1      -0.209  -0.588   2.690  1.00  0.00    -0.259 OA
ENDROOT
BRANCH   1   3
HETATM    3  C5  UNL     1       1.278  -1.087   1.124  1.00  0.00     0.067 C 
HETATM    4  C4  UNL     1       1.763  -2.129   1.822  1.00  0.00     0.032 C 
HETATM    5  C3  UNL     1       2.804  -2.869   1.391  1.00  0.00     0.118 C 
HETATM    6  C2  UNL     1       3.353  -2.562   0.192  1.00  0.00     0.138 C 
HETATM    7  C1  UNL     1       2.948  -1.463  -0.485  1.00  0.00     0.118 C 
HETATM    8  C6  UNL     1       1.873  -0.788  -0.041  1.00  0.00     0.032 C 
BRANCH   5   9
HETATM    9  O5  UNL     1       3.304  -3.961   2.066  1.00  0.00    -0.326 OA
HETATM   10  C18 UNL     1       2.580  -4.495   3.150  1.00  0.00     0.181 C 
ENDBRANCH   5   9
BRANCH   6  11
HETATM   11  O6  UNL     1       4.442  -3.273  -0.257  1.00  0.00    -0.324 OA
HETATM   12  C19 UNL     1       4.118  -4.346  -1.111  1.00  0.00     0.182 C 
ENDBRANCH   6  11
BRANCH   7  13
HETATM   13  O7  UNL     1       3.513  -1.129  -1.692  1.00  0.00    -0.326 OA
HETATM   14  C20 UNL     1       4.616  -0.259  -1.578  1.00  0.00     0.181 C 
ENDBRANCH   7  13
ENDBRANCH   1   3
BRANCH   1  15
HETATM   15  O1  UNL     1      -0.270   0.731   0.893  1.00  0.00    -0.301 OA
BRANCH  15  16
HETATM   16  C8  UNL     1      -0.835   1.792   1.610  1.00  0.00     0.129 C 
HETATM   17  C9  UNL     1      -0.795   3.051   0.732  1.00  0.00     0.066 C 
HETATM   18  C10 UNL     1      -2.048   3.229  -0.154  1.00  0.00     0.249 C 
HETATM   19  C11 UNL     1      -2.290   2.014  -1.070  1.00  0.00     0.158 C 
HETATM   20  N1  UNL     1      -3.191   3.295   0.744  1.00  0.00     0.138 N 
HETATM   21  C12 UNL     1      -3.228   1.134  -0.233  1.00  0.00     0.066 C 
HETATM   22  C13 UNL     1      -3.366   1.897   1.097  1.00  0.00     0.224 C 
HETATM   23  C14 UNL     1      -2.261   1.505   2.096  1.00  0.00     0.064 C 
HETATM   24  C15 UNL     1      -4.376   3.889   0.149  1.00  0.00     0.285 C 
BRANCH  19  25
HETATM   25  O2  UNL     1      -2.881   2.447  -2.260  1.00  0.00    -0.302 OA
BRANCH  25  26
HETATM   26  C16 UNL     1      -3.151   1.610  -3.302  1.00  0.00     0.272 C 
HETATM   27  O3  UNL     1      -3.741   1.990  -4.292  1.00  0.00    -0.264 OA
HETATM   28  C17 UNL     1      -2.640   0.185  -3.192  1.00  0.00     0.106 C 
ENDBRANCH  25  26
ENDBRANCH  19  25
ENDBRANCH  15  16
ENDBRANCH   1  15
TORSDOF 8
