REMARK  12 active torsions:
REMARK  status: ('A' for Active; 'I' for Inactive)
REMARK    1  A    between atoms: C4_4  and  C7_7 
REMARK    2  A    between atoms: C7_7  and  C8_8 
REMARK    3  A    between atoms: C8_8  and  N1_9 
REMARK       I    between atoms: N1_9  and  C9_10 
REMARK    4  A    between atoms: C9_10  and  C10_11 
REMARK    5  A    between atoms: C11_12  and  C12_13 
REMARK    6  A    between atoms: C15_16  and  O2_21 
REMARK    7  A    between atoms: C16_17  and  O1_19 
REMARK    8  A    between atoms: O2_21  and  C19_22 
REMARK    9  A    between atoms: C19_22  and  C20_23 
REMARK   10  A    between atoms: C19_22  and  C21_25 
REMARK   11  A    between atoms: C21_25  and  C22_26 
REMARK   12  A    between atoms: C24_28  and  O5_33 
ROOT
HETATM    1  C12 UNL     1      -1.126   0.926   2.182  1.00  0.00     0.002 C 
HETATM    2  C13 UNL     1      -1.692   0.483   3.381  1.00  0.00     0.002 C 
HETATM    3  C14 UNL     1      -2.088  -0.848   3.504  1.00  0.00     0.026 C 
HETATM    4  C15 UNL     1      -2.026  -1.747   2.432  1.00  0.00     0.116 C 
HETATM    5  C16 UNL     1      -1.418  -1.329   1.229  1.00  0.00     0.116 C 
HETATM    6  C17 UNL     1      -1.056   0.020   1.114  1.00  0.00     0.026 C 
ENDROOT
BRANCH   4   7
HETATM    7  O2  UNL     1      -2.296  -3.076   2.619  1.00  0.00    -0.326 OA
BRANCH   7   8
HETATM    8  C19 UNL     1      -3.625  -3.503   2.478  1.00  0.00     0.189 C 
BRANCH   8   9
HETATM    9  C20 UNL     1      -4.413  -2.676   1.466  1.00  0.00     0.215 C 
HETATM   10  O3  UNL     1      -5.704  -3.224   1.289  1.00  0.00    -0.218 OA
ENDBRANCH   8   9
BRANCH   8  11
HETATM   11  C21 UNL     1      -3.570  -4.997   2.139  1.00  0.00     0.205 C 
HETATM   12  O6  UNL     1      -4.870  -5.555   2.178  1.00  0.00    -0.216 OA
BRANCH  11  13
HETATM   13  C22 UNL     1      -2.913  -5.244   0.797  1.00  0.00     0.012 C 
HETATM   14  C23 UNL     1      -1.523  -5.377   0.704  1.00  0.00     0.025 C 
HETATM   15  C24 UNL     1      -0.841  -5.501  -0.514  1.00  0.00     0.119 C 
HETATM   16  C25 UNL     1      -1.608  -5.654  -1.680  1.00  0.00     0.153 C 
HETATM   17  C26 UNL     1      -2.999  -5.545  -1.601  1.00  0.00     0.029 C 
HETATM   18  O4  UNL     1      -1.014  -5.860  -2.886  1.00  0.00    -0.188 OA
HETATM   19  C27 UNL     1      -3.650  -5.332  -0.386  1.00  0.00     0.001 C 
BRANCH  15  20
HETATM   20  O5  UNL     1       0.518  -5.676  -0.538  1.00  0.00    -0.326 OA
HETATM   21  C28 UNL     1       1.240  -4.471  -0.642  1.00  0.00     0.181 C 
ENDBRANCH  15  20
ENDBRANCH  11  13
ENDBRANCH   8  11
ENDBRANCH   7   8
ENDBRANCH   4   7
BRANCH   5  22
HETATM   22  O1  UNL     1      -1.330  -2.234   0.198  1.00  0.00    -0.326 OA
HETATM   23  C18 UNL     1      -1.158  -1.752  -1.115  1.00  0.00     0.181 C 
ENDBRANCH   5  22
BRANCH   1  24
HETATM   24  C11 UNL     1      -0.626   2.309   2.054  1.00  0.00     0.005 C 
HETATM   25  C10 UNL     1       0.423   2.607   1.252  1.00  0.00     0.062 C 
BRANCH  25  26
HETATM   26  C9  UNL     1       0.986   3.964   1.092  1.00  0.00     0.275 C 
HETATM   27  N1  UNL     1       2.110   3.919   0.315  1.00  0.00    -0.234 NA
HETATM   28  O7  UNL     1       0.520   4.992   1.564  1.00  0.00    -0.266 OA
BRANCH  27  29
HETATM   29  C8  UNL     1       2.893   5.096  -0.066  1.00  0.00     0.134 C 
BRANCH  29  30
HETATM   30  C7  UNL     1       3.333   4.898  -1.524  1.00  0.00     0.053 C 
BRANCH  30  31
HETATM   31  C4  UNL     1       4.330   5.936  -1.976  1.00  0.00    -0.020 A 
HETATM   32  C3  UNL     1       5.705   5.710  -1.848  1.00  0.00    -0.002 A 
HETATM   33  C2  UNL     1       6.630   6.648  -2.307  1.00  0.00     0.027 A 
HETATM   34  C1  UNL     1       6.217   7.842  -2.906  1.00  0.00     0.131 A 
HETATM   35  C6  UNL     1       4.842   8.069  -3.019  1.00  0.00     0.027 A 
HETATM   36  O8  UNL     1       7.115   8.752  -3.368  1.00  0.00    -0.190 OA
HETATM   37  C5  UNL     1       3.911   7.135  -2.562  1.00  0.00    -0.002 A 
ENDBRANCH  30  31
ENDBRANCH  29  30
ENDBRANCH  27  29
ENDBRANCH  25  26
ENDBRANCH   1  24
TORSDOF 12
