REMARK  4 active torsions:
REMARK  status: ('A' for Active; 'I' for Inactive)
REMARK    1  A    between atoms: C2_2  and  C21_24 
REMARK    2  A    between atoms: C15_17  and  C16_18 
REMARK    3  A    between atoms: C16_18  and  C17_19 
REMARK    4  A    between atoms: C21_24  and  C22_25 
ROOT
HETATM    1  C1  UNL     1      -3.161   2.715   0.058  1.00  0.00     0.129 A 
HETATM    2  C2  UNL     1      -2.948   1.390   0.182  1.00  0.00     0.007 A 
HETATM    3  C3  UNL     1      -1.829   0.869  -0.351  1.00  0.00    -0.002 A 
HETATM    4  C4  UNL     1      -0.924   1.621  -0.999  1.00  0.00     0.028 A 
HETATM    5  C5  UNL     1      -1.123   2.946  -1.132  1.00  0.00     0.094 A 
HETATM    6  C6  UNL     1      -2.240   3.454  -0.583  1.00  0.00     0.051 A 
HETATM    7  O1  UNL     1      -0.207   3.772  -1.732  1.00  0.00    -0.331 OA
HETATM    8  C7  UNL     1       1.123   3.349  -1.593  1.00  0.00     0.156 C 
HETATM    9  C8  UNL     1       1.290   1.969  -2.208  1.00  0.00     0.086 C 
HETATM   10  C9  UNL     1       0.289   0.968  -1.610  1.00  0.00     0.152 C 
HETATM   11  O2  UNL     1       1.035   0.139  -0.719  1.00  0.00    -0.329 OA
HETATM   12  C10 UNL     1       2.245   0.281  -0.890  1.00  0.00     0.089 A 
HETATM   13  C11 UNL     1       2.534   1.277  -1.735  1.00  0.00     0.005 A 
HETATM   14  C12 UNL     1       3.802   1.568  -2.044  1.00  0.00    -0.000 A 
HETATM   15  C13 UNL     1       4.768   0.816  -1.495  1.00  0.00     0.027 A 
HETATM   16  C14 UNL     1       4.496  -0.196  -0.649  1.00  0.00     0.129 A 
HETATM   17  C15 UNL     1       3.211  -0.468  -0.330  1.00  0.00     0.029 A 
HETATM   18  O3  UNL     1       5.523  -0.932  -0.140  1.00  0.00    -0.190 OA
HETATM   19  O4  UNL     1      -4.261   3.321   0.582  1.00  0.00    -0.190 OA
ENDROOT
BRANCH   2  20
HETATM   20  C21 UNL     1      -3.923   0.504   0.934  1.00  0.00     0.054 C 
BRANCH  20  21
HETATM   21  C22 UNL     1      -4.154  -0.833   0.274  1.00  0.00    -0.030 C 
HETATM   22  C23 UNL     1      -5.114  -1.135  -0.618  1.00  0.00    -0.048 C 
HETATM   23  C24 UNL     1      -5.236  -2.529  -1.189  1.00  0.00     0.026 C 
HETATM   24  C25 UNL     1      -6.147  -0.157  -1.123  1.00  0.00     0.026 C 
ENDBRANCH  20  21
ENDBRANCH   2  20
BRANCH  17  25
HETATM   25  C16 UNL     1       2.872  -1.618   0.598  1.00  0.00     0.056 C 
BRANCH  25  26
HETATM   26  C17 UNL     1       3.473  -1.484   1.975  1.00  0.00    -0.030 C 
HETATM   27  C18 UNL     1       3.373  -2.404   2.951  1.00  0.00    -0.048 C 
HETATM   28  C19 UNL     1       4.044  -2.210   4.291  1.00  0.00     0.026 C 
HETATM   29  C20 UNL     1       2.604  -3.695   2.813  1.00  0.00     0.026 C 
ENDBRANCH  25  26
ENDBRANCH  17  25
TORSDOF 4
