REMARK  6 active torsions:
REMARK  status: ('A' for Active; 'I' for Inactive)
REMARK    1  A    between atoms: C2_2  and  C21_26 
REMARK    2  A    between atoms: C6_6  and  C7_7 
REMARK    3  A    between atoms: C7_7  and  C8_8 
REMARK    4  A    between atoms: C13_14  and  O3_17 
REMARK    5  A    between atoms: O3_17  and  C15_18 
REMARK    6  A    between atoms: C21_26  and  C22_27 
ROOT
HETATM    1  C1  UNL     1      -1.991   0.936  -0.430  1.00  0.00     0.126 A 
HETATM    2  C2  UNL     1      -1.483   2.019  -1.050  1.00  0.00     0.007 A 
HETATM    3  C3  UNL     1      -0.156   2.227  -0.997  1.00  0.00     0.003 A 
HETATM    4  C4  UNL     1       0.673   1.393  -0.346  1.00  0.00     0.063 A 
HETATM    5  C5  UNL     1       0.169   0.322   0.294  1.00  0.00     0.102 A 
HETATM    6  C6  UNL     1      -1.164   0.109   0.244  1.00  0.00     0.030 A 
HETATM    7  O1  UNL     1       0.971  -0.550   0.972  1.00  0.00    -0.303 OA
HETATM    8  C12 UNL     1       2.302  -0.287   0.946  1.00  0.00     0.150 A 
HETATM    9  C13 UNL     1       2.842   0.764   0.308  1.00  0.00     0.164 A 
HETATM   10  C14 UNL     1       2.015   1.629  -0.343  1.00  0.00     0.222 A 
HETATM   11  O2  UNL     1       2.492   2.585  -0.916  1.00  0.00    -0.284 OA
HETATM   12  O6  UNL     1      -3.318   0.640  -0.502  1.00  0.00    -0.191 OA
ENDROOT
BRANCH   9  13
HETATM   13  O3  UNL     1       4.195   1.004   0.298  1.00  0.00    -0.300 OA
BRANCH  13  14
HETATM   14  C15 UNL     1       4.980  -0.089   0.038  1.00  0.00     0.126 A 
HETATM   15  C16 UNL     1       5.786  -0.607   0.988  1.00  0.00     0.156 A 
HETATM   16  C17 UNL     1       6.537  -1.684   0.704  1.00  0.00     0.057 A 
HETATM   17  O5  UNL     1       5.842  -0.054   2.231  1.00  0.00    -0.188 OA
HETATM   18  C18 UNL     1       6.528  -2.281  -0.498  1.00  0.00     0.133 A 
HETATM   19  C19 UNL     1       5.732  -1.752  -1.440  1.00  0.00     0.030 A 
HETATM   20  O4  UNL     1       7.293  -3.375  -0.757  1.00  0.00    -0.190 OA
HETATM   21  C20 UNL     1       4.976  -0.677  -1.174  1.00  0.00     0.029 A 
ENDBRANCH  13  14
ENDBRANCH   9  13
BRANCH   6  22
HETATM   22  C7  UNL     1      -1.753  -1.106   0.947  1.00  0.00     0.056 C 
BRANCH  22  23
HETATM   23  C8  UNL     1      -1.987  -2.208  -0.055  1.00  0.00    -0.030 C 
HETATM   24  C9  UNL     1      -1.962  -3.531   0.186  1.00  0.00    -0.048 C 
HETATM   25  C10 UNL     1      -2.198  -4.526  -0.927  1.00  0.00     0.026 C 
HETATM   26  C11 UNL     1      -1.706  -4.153   1.537  1.00  0.00     0.026 C 
ENDBRANCH  22  23
ENDBRANCH   6  22
BRANCH   2  27
HETATM   27  C21 UNL     1      -2.330   3.001  -1.841  1.00  0.00     0.054 C 
BRANCH  27  28
HETATM   28  C22 UNL     1      -3.793   3.074  -1.487  1.00  0.00    -0.030 C 
HETATM   29  C23 UNL     1      -4.319   3.626  -0.379  1.00  0.00    -0.048 C 
HETATM   30  C24 UNL     1      -5.810   3.614  -0.135  1.00  0.00     0.026 C 
HETATM   31  C25 UNL     1      -3.502   4.276   0.712  1.00  0.00     0.026 C 
ENDBRANCH  27  28
ENDBRANCH   2  27
TORSDOF 6
