REMARK  5 active torsions:
REMARK  status: ('A' for Active; 'I' for Inactive)
REMARK    1  A    between atoms: C2_2  and  C21_24 
REMARK    2  A    between atoms: C6_6  and  C7_7 
REMARK    3  A    between atoms: C7_7  and  C8_8 
REMARK    4  A    between atoms: C13_14  and  C15_16 
REMARK    5  A    between atoms: C21_24  and  C22_25 
ROOT
HETATM    1  C1  UNL     1      -1.758   0.945  -0.940  1.00  0.00     0.126 A 
HETATM    2  C2  UNL     1      -1.830  -0.393  -0.795  1.00  0.00     0.007 A 
HETATM    3  C3  UNL     1      -0.724  -1.055  -0.423  1.00  0.00    -0.004 A 
HETATM    4  C4  UNL     1       0.444  -0.428  -0.212  1.00  0.00     0.000 A 
HETATM    5  C5  UNL     1       0.529   0.910  -0.361  1.00  0.00     0.088 A 
HETATM    6  C6  UNL     1      -0.589   1.581  -0.717  1.00  0.00     0.029 A 
HETATM    7  O1  UNL     1       1.689   1.609  -0.132  1.00  0.00    -0.331 OA
HETATM    8  C12 UNL     1       2.714   0.950   0.559  1.00  0.00     0.153 C 
HETATM    9  C13 UNL     1       2.933  -0.433  -0.043  1.00  0.00     0.059 C 
HETATM   10  C14 UNL     1       1.655  -1.252   0.172  1.00  0.00     0.035 C 
HETATM   11  O4  UNL     1      -2.871   1.650  -1.292  1.00  0.00    -0.191 OA
ENDROOT
BRANCH   9  12
HETATM   12  C15 UNL     1       4.202  -1.118   0.445  1.00  0.00     0.006 A 
HETATM   13  C16 UNL     1       5.148  -1.447  -0.455  1.00  0.00    -0.000 A 
HETATM   14  C17 UNL     1       6.295  -2.036  -0.093  1.00  0.00     0.027 A 
HETATM   15  C18 UNL     1       6.540  -2.321   1.194  1.00  0.00     0.133 A 
HETATM   16  C19 UNL     1       5.591  -1.994   2.084  1.00  0.00     0.054 A 
HETATM   17  O3  UNL     1       7.699  -2.916   1.586  1.00  0.00    -0.190 OA
HETATM   18  C20 UNL     1       4.432  -1.401   1.745  1.00  0.00     0.129 A 
HETATM   19  O2  UNL     1       3.533  -1.109   2.723  1.00  0.00    -0.190 OA
ENDBRANCH   9  12
BRANCH   6  20
HETATM   20  C7  UNL     1      -0.545   3.093  -0.885  1.00  0.00     0.056 C 
BRANCH  20  21
HETATM   21  C8  UNL     1      -1.397   3.754   0.170  1.00  0.00    -0.030 C 
HETATM   22  C9  UNL     1      -2.249   4.779  -0.008  1.00  0.00    -0.048 C 
HETATM   23  C10 UNL     1      -3.067   5.317   1.144  1.00  0.00     0.026 C 
HETATM   24  C11 UNL     1      -2.477   5.498  -1.315  1.00  0.00     0.026 C 
ENDBRANCH  20  21
ENDBRANCH   6  20
BRANCH   2  25
HETATM   25  C21 UNL     1      -3.155  -1.098  -1.032  1.00  0.00     0.054 C 
BRANCH  25  26
HETATM   26  C22 UNL     1      -3.083  -2.599  -1.162  1.00  0.00    -0.030 C 
HETATM   27  C23 UNL     1      -3.827  -3.518  -0.518  1.00  0.00    -0.048 C 
HETATM   28  C24 UNL     1      -3.624  -4.996  -0.770  1.00  0.00     0.026 C 
HETATM   29  C25 UNL     1      -4.915  -3.217   0.485  1.00  0.00     0.026 C 
ENDBRANCH  25  26
ENDBRANCH   2  25
TORSDOF 5
