REMARK  6 active torsions:
REMARK  status: ('A' for Active; 'I' for Inactive)
REMARK    1  A    between atoms: C2_2  and  C22_26 
REMARK    2  A    between atoms: C6_6  and  C7_7 
REMARK    3  A    between atoms: C7_7  and  C8_8 
REMARK    4  A    between atoms: C13_14  and  C15_17 
REMARK    5  A    between atoms: C20_22  and  O3_23 
REMARK    6  A    between atoms: C22_26  and  C23_27 
ROOT
HETATM    1  C1  UNL     1      -1.843   1.132  -0.775  1.00  0.00     0.126 A 
HETATM    2  C2  UNL     1      -1.859  -0.215  -0.747  1.00  0.00     0.007 A 
HETATM    3  C3  UNL     1      -0.690  -0.876  -0.744  1.00  0.00     0.003 A 
HETATM    4  C4  UNL     1       0.487  -0.228  -0.741  1.00  0.00     0.057 A 
HETATM    5  C5  UNL     1       0.517   1.122  -0.753  1.00  0.00     0.095 A 
HETATM    6  C6  UNL     1      -0.662   1.786  -0.769  1.00  0.00     0.030 A 
HETATM    7  O1  UNL     1       1.689   1.836  -0.721  1.00  0.00    -0.330 OA
HETATM    8  C12 UNL     1       2.780   1.180  -0.142  1.00  0.00     0.161 C 
HETATM    9  C13 UNL     1       2.951  -0.174  -0.814  1.00  0.00     0.116 C 
HETATM   10  C14 UNL     1       1.642  -0.951  -0.765  1.00  0.00     0.181 C 
HETATM   11  O2  UNL     1       1.677  -2.162  -0.792  1.00  0.00    -0.291 OA
HETATM   12  O5  UNL     1      -3.018   1.821  -0.828  1.00  0.00    -0.191 OA
ENDROOT
BRANCH   9  13
HETATM   13  C15 UNL     1       4.156  -0.928  -0.268  1.00  0.00     0.010 A 
HETATM   14  C16 UNL     1       5.225  -1.107  -1.065  1.00  0.00     0.000 A 
HETATM   15  C17 UNL     1       6.307  -1.772  -0.641  1.00  0.00     0.027 A 
HETATM   16  C18 UNL     1       6.343  -2.285   0.597  1.00  0.00     0.133 A 
HETATM   17  C19 UNL     1       5.268  -2.094   1.379  1.00  0.00     0.051 A 
HETATM   18  O4  UNL     1       7.426  -2.976   1.045  1.00  0.00    -0.190 OA
HETATM   19  C20 UNL     1       4.172  -1.405   0.998  1.00  0.00     0.093 A 
BRANCH  19  20
HETATM   20  O3  UNL     1       3.069  -1.230   1.801  1.00  0.00    -0.328 OA
HETATM   21  C21 UNL     1       2.834  -2.153   2.839  1.00  0.00     0.181 C 
ENDBRANCH  19  20
ENDBRANCH   9  13
BRANCH   6  22
HETATM   22  C7  UNL     1      -0.677   3.309  -0.811  1.00  0.00     0.056 C 
BRANCH  22  23
HETATM   23  C8  UNL     1      -1.440   3.888   0.354  1.00  0.00    -0.030 C 
HETATM   24  C9  UNL     1      -2.386   4.843   0.300  1.00  0.00    -0.048 C 
HETATM   25  C10 UNL     1      -3.111   5.291   1.549  1.00  0.00     0.026 C 
HETATM   26  C11 UNL     1      -2.825   5.559  -0.956  1.00  0.00     0.026 C 
ENDBRANCH  22  23
ENDBRANCH   6  22
BRANCH   2  27
HETATM   27  C22 UNL     1      -3.178  -0.971  -0.771  1.00  0.00     0.054 C 
BRANCH  27  28
HETATM   28  C23 UNL     1      -3.183  -2.264   0.009  1.00  0.00    -0.030 C 
HETATM   29  C24 UNL     1      -3.941  -3.345  -0.253  1.00  0.00    -0.048 C 
HETATM   30  C25 UNL     1      -3.856  -4.588   0.603  1.00  0.00     0.026 C 
HETATM   31  C26 UNL     1      -4.938  -3.438  -1.383  1.00  0.00     0.026 C 
ENDBRANCH  27  28
ENDBRANCH   2  27
TORSDOF 6
