REMARK  5 active torsions:
REMARK  status: ('A' for Active; 'I' for Inactive)
REMARK    1  A    between atoms: C6_6  and  C7_7 
REMARK    2  A    between atoms: C7_7  and  C8_8 
REMARK    3  A    between atoms: C19_21  and  O3_28 
REMARK    4  A    between atoms: C20_22  and  C21_23 
REMARK    5  A    between atoms: C21_23  and  C22_24 
ROOT
HETATM    1  C1  UNL     1      -3.930   1.432  -0.797  1.00  0.00     0.129 A 
HETATM    2  C2  UNL     1      -3.826   0.116  -0.554  1.00  0.00     0.027 A 
HETATM    3  C3  UNL     1      -2.680  -0.536  -0.779  1.00  0.00     0.002 A 
HETATM    4  C4  UNL     1      -1.609   0.120  -1.249  1.00  0.00     0.030 A 
HETATM    5  C5  UNL     1      -1.680   1.446  -1.497  1.00  0.00     0.091 A 
HETATM    6  C6  UNL     1      -2.847   2.091  -1.263  1.00  0.00     0.030 A 
HETATM    7  O1  UNL     1      -0.588   2.146  -1.947  1.00  0.00    -0.328 OA
HETATM    8  C12 UNL     1       0.659   1.627  -1.577  1.00  0.00     0.186 C 
HETATM    9  C13 UNL     1       0.792   0.203  -2.060  1.00  0.00     0.204 C 
HETATM   10  C14 UNL     1      -0.362  -0.667  -1.570  1.00  0.00     0.180 C 
HETATM   11  O2  UNL     1       0.172  -1.455  -0.503  1.00  0.00    -0.326 OA
HETATM   12  C15 UNL     1       1.404  -1.445  -0.520  1.00  0.00     0.091 A 
HETATM   13  C16 UNL     1       1.893  -0.552  -1.386  1.00  0.00     0.032 A 
HETATM   14  C17 UNL     1       3.208  -0.381  -1.540  1.00  0.00     0.002 A 
HETATM   15  C18 UNL     1       4.019  -1.167  -0.816  1.00  0.00     0.024 A 
HETATM   16  C19 UNL     1       3.558  -2.121   0.021  1.00  0.00     0.092 A 
HETATM   17  C20 UNL     1       2.220  -2.220   0.217  1.00  0.00     0.026 A 
HETATM   18  O4  UNL     1       0.943   0.147  -3.458  1.00  0.00    -0.216 OA
HETATM   19  O5  UNL     1      -5.119   2.062  -0.583  1.00  0.00    -0.190 OA
ENDROOT
BRANCH   6  20
HETATM   20  C7  UNL     1      -2.970   3.580  -1.555  1.00  0.00     0.056 C 
BRANCH  20  21
HETATM   21  C8  UNL     1      -3.386   4.354  -0.329  1.00  0.00    -0.030 C 
HETATM   22  C9  UNL     1      -4.354   5.286  -0.257  1.00  0.00    -0.048 C 
HETATM   23  C10 UNL     1      -4.699   5.949   1.057  1.00  0.00     0.026 C 
HETATM   24  C11 UNL     1      -5.181   5.771  -1.424  1.00  0.00     0.026 C 
ENDBRANCH  20  21
ENDBRANCH   6  20
BRANCH  17  25
HETATM   25  C21 UNL     1       1.647  -3.226   1.200  1.00  0.00     0.056 C 
BRANCH  25  26
HETATM   26  C22 UNL     1       2.210  -3.041   2.589  1.00  0.00    -0.030 C 
HETATM   27  C23 UNL     1       2.881  -3.943   3.329  1.00  0.00    -0.048 C 
HETATM   28  C24 UNL     1       3.418  -3.582   4.696  1.00  0.00     0.026 C 
HETATM   29  C25 UNL     1       3.196  -5.359   2.907  1.00  0.00     0.026 C 
ENDBRANCH  25  26
ENDBRANCH  17  25
BRANCH  16  30
HETATM   30  O3  UNL     1       4.452  -2.866   0.749  1.00  0.00    -0.328 OA
HETATM   31  C26 UNL     1       4.986  -3.965   0.045  1.00  0.00     0.181 C 
ENDBRANCH  16  30
TORSDOF 5
