REMARK  3 active torsions:
REMARK  status: ('A' for Active; 'I' for Inactive)
REMARK    1  A    between atoms: C6_6  and  C7_7 
REMARK    2  A    between atoms: C7_7  and  C8_8 
REMARK    3  A    between atoms: C13_14  and  C15_16 
ROOT
HETATM    1  C1  UNL     1      -2.773  -0.148  -0.531  1.00  0.00     0.092 A 
HETATM    2  C2  UNL     1      -2.545  -1.439  -0.844  1.00  0.00     0.022 A 
HETATM    3  C3  UNL     1      -1.303  -1.941  -0.761  1.00  0.00    -0.000 A 
HETATM    4  C4  UNL     1      -0.274  -1.194  -0.336  1.00  0.00     0.000 A 
HETATM    5  C5  UNL     1      -0.476   0.093   0.010  1.00  0.00     0.088 A 
HETATM    6  C6  UNL     1      -1.730   0.592  -0.087  1.00  0.00     0.026 A 
HETATM    7  O1  UNL     1       0.533   0.902   0.474  1.00  0.00    -0.331 OA
HETATM    8  C12 UNL     1       1.723   0.281   0.881  1.00  0.00     0.153 C 
HETATM    9  C13 UNL     1       2.169  -0.724  -0.177  1.00  0.00     0.059 C 
HETATM   10  C14 UNL     1       1.101  -1.818  -0.274  1.00  0.00     0.035 C 
HETATM   11  C21 UNL     1      -3.550  -2.221  -1.273  1.00  0.00    -0.000 C 
HETATM   12  C22 UNL     1      -4.806  -1.764  -1.264  1.00  0.00     0.001 C 
HETATM   13  C23 UNL     1      -5.138  -0.422  -0.667  1.00  0.00     0.117 C 
HETATM   14  O4  UNL     1      -4.019   0.420  -0.621  1.00  0.00    -0.332 OA
HETATM   15  C24 UNL     1      -5.644  -0.631   0.765  1.00  0.00     0.035 C 
HETATM   16  C25 UNL     1      -6.210   0.276  -1.509  1.00  0.00     0.035 C 
ENDROOT
BRANCH   9  17
HETATM   17  C15 UNL     1       3.570  -1.288   0.023  1.00  0.00     0.006 A 
HETATM   18  C16 UNL     1       4.470  -1.151  -0.969  1.00  0.00    -0.000 A 
HETATM   19  C17 UNL     1       5.719  -1.626  -0.863  1.00  0.00     0.027 A 
HETATM   20  C18 UNL     1       6.116  -2.260   0.249  1.00  0.00     0.133 A 
HETATM   21  C19 UNL     1       5.212  -2.396   1.232  1.00  0.00     0.054 A 
HETATM   22  O3  UNL     1       7.377  -2.753   0.380  1.00  0.00    -0.190 OA
HETATM   23  C20 UNL     1       3.954  -1.925   1.149  1.00  0.00     0.129 A 
HETATM   24  O2  UNL     1       3.108  -2.126   2.195  1.00  0.00    -0.190 OA
ENDBRANCH   9  17
BRANCH   6  25
HETATM   25  C7  UNL     1      -1.948   2.048   0.308  1.00  0.00     0.056 C 
BRANCH  25  26
HETATM   26  C8  UNL     1      -1.111   2.975  -0.540  1.00  0.00    -0.030 C 
HETATM   27  C9  UNL     1      -0.427   4.056  -0.122  1.00  0.00    -0.048 C 
HETATM   28  C10 UNL     1       0.401   4.875  -1.085  1.00  0.00     0.026 C 
HETATM   29  C11 UNL     1      -0.397   4.559   1.301  1.00  0.00     0.026 C 
ENDBRANCH  25  26
ENDBRANCH   6  25
TORSDOF 3
