REMARK  20 active torsions:
REMARK  status: ('A' for Active; 'I' for Inactive)
REMARK    1  A    between atoms: C2_2  and  O11_46 
REMARK    2  A    between atoms: C15_15  and  C31_41 
REMARK    3  A    between atoms: C16_16  and  O1_18 
REMARK    4  A    between atoms: O1_18  and  C18_19 
REMARK    5  A    between atoms: C18_19  and  C19_21 
REMARK    6  A    between atoms: C19_21  and  O3_22 
REMARK    7  A    between atoms: C22_25  and  C24_28 
REMARK    8  A    between atoms: C24_28  and  O4_29 
REMARK    9  A    between atoms: O4_29  and  C25_30 
REMARK   10  A    between atoms: C26_32  and  C30_39 
REMARK   11  A    between atoms: O11_46  and  C35_47 
REMARK   12  A    between atoms: C36_49  and  C57_87 
REMARK   13  A    between atoms: C37_50  and  O15_55 
REMARK   14  A    between atoms: O15_55  and  C40_56 
REMARK   15  A    between atoms: C41_58  and  C56_85 
REMARK   16  A    between atoms: C43_60  and  O23_74 
REMARK   17  A    between atoms: C44_61  and  O17_62 
REMARK   18  A    between atoms: O17_62  and  C45_63 
REMARK   19  A    between atoms: C46_65  and  C50_72 
REMARK   20  A    between atoms: O23_74  and  C51_75 
ROOT
HETATM    1  C1  UNL     1      -2.978  -1.365  -1.222  1.00  0.00     0.030 C 
HETATM    2  C2  UNL     1      -3.443  -1.665   0.209  1.00  0.00     0.118 C 
HETATM    3  C3  UNL     1      -2.317  -2.292   1.038  1.00  0.00     0.030 C 
HETATM    4  C4  UNL     1      -0.885  -1.972   0.560  1.00  0.00     0.002 C 
HETATM    5  C5  UNL     1      -0.724  -0.600  -0.149  1.00  0.00     0.000 C 
HETATM    6  C6  UNL     1      -1.618  -0.662  -1.411  1.00  0.00     0.003 C 
HETATM    7  C7  UNL     1       0.780  -0.428  -0.513  1.00  0.00     0.000 C 
HETATM    8  C8  UNL     1       1.666  -0.456   0.750  1.00  0.00     0.000 C 
HETATM    9  C9  UNL     1       1.576  -1.883   1.325  1.00  0.00     0.000 C 
HETATM   10  C10 UNL     1       0.120  -2.201   1.708  1.00  0.00     0.000 C 
HETATM   11  C11 UNL     1       3.039   0.259   0.612  1.00  0.00     0.003 C 
HETATM   12  C12 UNL     1       3.617   0.483  -0.815  1.00  0.00     0.009 C 
HETATM   13  C13 UNL     1       2.558   0.555  -1.941  1.00  0.00     0.001 C 
HETATM   14  C14 UNL     1       1.141   0.774  -1.398  1.00  0.00     0.000 C 
HETATM   15  C15 UNL     1       4.608  -0.703  -1.000  1.00  0.00     0.085 C 
HETATM   16  C16 UNL     1       4.739  -1.398   0.368  1.00  0.00     0.131 C 
HETATM   17  C17 UNL     1       4.218  -0.378   1.372  1.00  0.00     0.031 C 
HETATM   18  C33 UNL     1       4.344   1.855  -0.828  1.00  0.00     0.001 C 
HETATM   19  C34 UNL     1      -1.169   0.603   0.705  1.00  0.00     0.000 C 
ENDROOT
BRANCH   2  20
HETATM   20  O11 UNL     1      -3.929  -0.511   0.847  1.00  0.00    -0.332 OA
BRANCH  20  21
HETATM   21  C35 UNL     1      -4.886  -0.741   1.863  1.00  0.00     0.270 C 
HETATM   22  O12 UNL     1      -6.148  -0.315   1.415  1.00  0.00    -0.326 OA
HETATM   23  C36 UNL     1      -6.237   1.038   1.042  1.00  0.00     0.181 C 
HETATM   24  C37 UNL     1      -5.610   2.052   2.029  1.00  0.00     0.181 C 
HETATM   25  C38 UNL     1      -4.527   1.486   2.952  1.00  0.00     0.217 C 
HETATM   26  C39 UNL     1      -4.594  -0.012   3.147  1.00  0.00     0.241 C 
HETATM   27  O14 UNL     1      -3.251   1.793   2.459  1.00  0.00    -0.218 OA
HETATM   28  O13 UNL     1      -5.629  -0.314   4.059  1.00  0.00    -0.215 OA
BRANCH  23  29
HETATM   29  C57 UNL     1      -5.893   1.188  -0.439  1.00  0.00     0.214 C 
HETATM   30  O30 UNL     1      -6.803   2.068  -1.070  1.00  0.00    -0.218 OA
ENDBRANCH  23  29
BRANCH  24  31
HETATM   31  O15 UNL     1      -5.162   3.179   1.307  1.00  0.00    -0.326 OA
BRANCH  31  32
HETATM   32  C40 UNL     1      -4.695   4.287   2.057  1.00  0.00     0.267 C 
HETATM   33  O16 UNL     1      -5.737   5.231   2.161  1.00  0.00    -0.326 OA
HETATM   34  C41 UNL     1      -6.044   5.962   1.005  1.00  0.00     0.184 C 
HETATM   35  C42 UNL     1      -4.821   6.610   0.377  1.00  0.00     0.211 C 
HETATM   36  C43 UNL     1      -3.643   5.665   0.196  1.00  0.00     0.183 C 
HETATM   37  O28 UNL     1      -4.421   7.694   1.187  1.00  0.00    -0.218 OA
HETATM   38  C44 UNL     1      -3.406   4.845   1.461  1.00  0.00     0.204 C 
BRANCH  34  39
HETATM   39  C56 UNL     1      -6.897   5.170   0.027  1.00  0.00     0.214 C 
HETATM   40  O29 UNL     1      -7.548   6.042  -0.875  1.00  0.00    -0.218 OA
ENDBRANCH  34  39
BRANCH  36  41
HETATM   41  O23 UNL     1      -3.849   4.814  -0.899  1.00  0.00    -0.326 OA
BRANCH  41  42
HETATM   42  C51 UNL     1      -2.663   4.486  -1.596  1.00  0.00     0.270 C 
HETATM   43  O24 UNL     1      -2.422   5.524  -2.524  1.00  0.00    -0.326 OA
HETATM   44  C52 UNL     1      -3.395   5.635  -3.534  1.00  0.00     0.181 C 
HETATM   45  C53 UNL     1      -3.552   4.339  -4.308  1.00  0.00     0.215 C 
HETATM   46  C54 UNL     1      -3.820   3.168  -3.383  1.00  0.00     0.220 C 
HETATM   47  O27 UNL     1      -2.373   4.091  -5.042  1.00  0.00    -0.218 OA
HETATM   48  C55 UNL     1      -2.784   3.142  -2.278  1.00  0.00     0.241 C 
HETATM   49  O26 UNL     1      -5.098   3.289  -2.804  1.00  0.00    -0.218 OA
HETATM   50  O25 UNL     1      -1.533   2.801  -2.827  1.00  0.00    -0.215 OA
ENDBRANCH  41  42
ENDBRANCH  36  41
BRANCH  38  51
HETATM   51  O17 UNL     1      -2.699   5.659   2.359  1.00  0.00    -0.324 OA
BRANCH  51  52
HETATM   52  C45 UNL     1      -2.055   4.992   3.424  1.00  0.00     0.270 C 
HETATM   53  O18 UNL     1      -2.678   5.380   4.627  1.00  0.00    -0.326 OA
HETATM   54  C46 UNL     1      -2.423   6.691   5.055  1.00  0.00     0.184 C 
HETATM   55  C47 UNL     1      -0.932   6.997   5.127  1.00  0.00     0.215 C 
HETATM   56  C48 UNL     1      -0.179   6.633   3.861  1.00  0.00     0.220 C 
HETATM   57  O21 UNL     1      -0.378   6.250   6.188  1.00  0.00    -0.218 OA
HETATM   58  C49 UNL     1      -0.562   5.233   3.428  1.00  0.00     0.241 C 
HETATM   59  O20 UNL     1      -0.459   7.552   2.834  1.00  0.00    -0.218 OA
HETATM   60  O19 UNL     1       0.040   4.304   4.305  1.00  0.00    -0.215 OA
BRANCH  54  61
HETATM   61  C50 UNL     1      -3.254   7.724   4.307  1.00  0.00     0.214 C 
HETATM   62  O22 UNL     1      -3.288   8.932   5.040  1.00  0.00    -0.218 OA
ENDBRANCH  54  61
ENDBRANCH  51  52
ENDBRANCH  38  51
ENDBRANCH  31  32
ENDBRANCH  24  31
ENDBRANCH  20  21
ENDBRANCH   2  20
BRANCH  15  63
HETATM   63  C31 UNL     1       5.874  -0.350  -1.779  1.00  0.00     0.153 C 
HETATM   64  O10 UNL     1       5.865  -0.437  -2.987  1.00  0.00    -0.296 OA
HETATM   65  C32 UNL     1       7.125   0.160  -1.085  1.00  0.00     0.072 C 
ENDBRANCH  15  63
BRANCH  16  66
HETATM   66  O1  UNL     1       6.036  -1.814   0.652  1.00  0.00    -0.301 OA
BRANCH  66  67
HETATM   67  C18 UNL     1       6.445  -3.097   0.885  1.00  0.00     0.331 C 
HETATM   68  O2  UNL     1       7.623  -3.335   1.050  1.00  0.00    -0.259 OA
BRANCH  67  69
HETATM   69  C19 UNL     1       5.386  -4.212   1.002  1.00  0.00     0.398 C 
HETATM   70  C21 UNL     1       4.661  -4.420  -0.341  1.00  0.00     0.078 C 
HETATM   71  C22 UNL     1       5.149  -5.773  -0.875  1.00  0.00     0.071 C 
HETATM   72  C23 UNL     1       5.486  -6.524   0.416  1.00  0.00     0.296 C 
HETATM   73  N1  UNL     1       6.048  -5.494   1.286  1.00  0.00     0.372 N 
BRANCH  69  74
HETATM   74  O3  UNL     1       4.541  -3.900   2.096  1.00  0.00    -0.321 OA
HETATM   75  C20 UNL     1       3.596  -4.869   2.495  1.00  0.00     0.177 C 
ENDBRANCH  69  74
BRANCH  71  76
HETATM   76  C24 UNL     1       4.129  -6.466  -1.777  1.00  0.00     0.147 C 
BRANCH  76  77
HETATM   77  O4  UNL     1       4.805  -7.283  -2.697  1.00  0.00    -0.329 OA
BRANCH  77  78
HETATM   78  C25 UNL     1       3.957  -8.155  -3.409  1.00  0.00     0.270 C 
HETATM   79  O5  UNL     1       3.930  -9.390  -2.724  1.00  0.00    -0.326 OA
HETATM   80  C26 UNL     1       5.091 -10.175  -2.810  1.00  0.00     0.184 C 
HETATM   81  C27 UNL     1       5.537 -10.384  -4.251  1.00  0.00     0.215 C 
HETATM   82  C28 UNL     1       5.642  -9.095  -5.043  1.00  0.00     0.220 C 
HETATM   83  O8  UNL     1       4.601 -11.219  -4.899  1.00  0.00    -0.218 OA
HETATM   84  C29 UNL     1       4.372  -8.288  -4.859  1.00  0.00     0.241 C 
HETATM   85  O7  UNL     1       6.755  -8.343  -4.625  1.00  0.00    -0.218 OA
HETATM   86  O6  UNL     1       3.328  -8.930  -5.557  1.00  0.00    -0.215 OA
BRANCH  80  87
HETATM   87  C30 UNL     1       6.185  -9.716  -1.852  1.00  0.00     0.214 C 
HETATM   88  O9  UNL     1       7.149 -10.737  -1.691  1.00  0.00    -0.218 OA
ENDBRANCH  80  87
ENDBRANCH  77  78
ENDBRANCH  76  77
ENDBRANCH  71  76
ENDBRANCH  67  69
ENDBRANCH  66  67
ENDBRANCH  16  66
TORSDOF 20
