REMARK  1 active torsions:
REMARK  status: ('A' for Active; 'I' for Inactive)
REMARK    1  A    between atoms: C22_22  and  C24_24 
ROOT
HETATM    1  C1  UNL     1      -0.097  -2.721  -1.698  1.00  0.00     0.011 C 
HETATM    2  C2  UNL     1      -0.448  -3.208  -0.065  1.00  0.00     0.168 C 
HETATM    3  C3  UNL     1      -1.990  -3.124   0.696  1.00  0.00     0.055 C 
HETATM    4  C4  UNL     1      -3.117  -1.982  -0.178  1.00  0.00     0.007 A 
HETATM    5  C5  UNL     1      -2.617  -1.036  -1.720  1.00  0.00     0.005 C 
HETATM    6  C6  UNL     1      -1.060  -1.602  -2.559  1.00  0.00     0.029 C 
HETATM    7  C7  UNL     1      -1.925   0.114  -1.164  1.00  0.00     0.004 C 
HETATM    8  C8  UNL     1      -1.293  -1.133  -0.501  1.00  0.00     0.015 C 
HETATM    9  C9  UNL     1      -2.185  -2.779  -1.312  1.00  0.00     0.004 A 
HETATM   10  C10 UNL     1      -3.697  -3.004  -1.054  1.00  0.00     0.001 A 
HETATM   11  C11 UNL     1       0.185  -0.347  -0.557  1.00  0.00    -0.050 C 
HETATM   12  C12 UNL     1       0.241   1.258  -0.532  1.00  0.00     0.015 C 
HETATM   13  C13 UNL     1      -1.110   2.044  -0.199  1.00  0.00     0.004 C 
HETATM   14  C14 UNL     1      -2.449   1.304  -0.415  1.00  0.00     0.001 C 
HETATM   15  C15 UNL     1       1.265   1.799   0.559  1.00  0.00     0.004 C 
HETATM   16  C16 UNL     1       2.378   0.834   1.032  1.00  0.00     0.004 C 
HETATM   17  C17 UNL     1       2.683  -0.189  -0.060  1.00  0.00     0.021 C 
HETATM   18  C18 UNL     1       1.371  -0.909  -0.237  1.00  0.00    -0.035 C 
HETATM   19  C19 UNL     1       3.819  -1.164   0.296  1.00  0.00     0.005 C 
HETATM   20  C20 UNL     1       3.636   1.549   1.555  1.00  0.00     0.001 C 
HETATM   21  C21 UNL     1       3.257   2.809   2.342  1.00  0.00     0.010 C 
HETATM   22  C22 UNL     1       2.585   3.862   1.436  1.00  0.00     0.078 C 
HETATM   23  C23 UNL     1       1.867   3.187   0.244  1.00  0.00     0.011 C 
HETATM   24  C25 UNL     1       1.580   4.679   2.278  1.00  0.00     0.011 C 
HETATM   25  C26 UNL     1       0.722   1.719  -1.946  1.00  0.00     0.004 C 
HETATM   26  C27 UNL     1      -1.287  -0.771   1.052  1.00  0.00     0.004 C 
HETATM   27  C28 UNL     1      -3.705  -0.588  -2.713  1.00  0.00     0.000 C 
HETATM   28  C29 UNL     1      -2.342  -4.693   0.716  1.00  0.00     0.008 C 
HETATM   29  C30 UNL     1      -2.040  -3.033   2.275  1.00  0.00     0.008 C 
HETATM   30  O3  UNL     1       0.411  -3.822   0.532  1.00  0.00    -0.292 OA
ENDROOT
BRANCH  22  31
HETATM   31  C24 UNL     1       3.613   4.850   0.872  1.00  0.00     0.184 C 
HETATM   32  O1  UNL     1       3.470   6.042   0.741  1.00  0.00    -0.647 OA
HETATM   33  O2  UNL     1       4.756   4.256   0.478  1.00  0.00    -0.647 OA
ENDBRANCH  22  31
TORSDOF 1
