REMARK  4 active torsions:
REMARK  status: ('A' for Active; 'I' for Inactive)
REMARK    1  A    between atoms: C3_3  and  O4_10 
REMARK    2  A    between atoms: C4_5  and  C6_8 
REMARK    3  A    between atoms: O4_10  and  C7_11 
REMARK    4  A    between atoms: C7_11  and  C8_12 
ROOT
HETATM    1  C1  UNL     1      -1.048  -0.660  -1.757  1.00  0.00     0.220 C 
HETATM    2  C2  UNL     1       0.449  -0.897  -1.756  1.00  0.00     0.241 C 
HETATM    3  C3  UNL     1       1.138  -0.260  -0.569  1.00  0.00     0.270 C 
HETATM    4  O1  UNL     1       0.819   1.109  -0.434  1.00  0.00    -0.326 OA
HETATM    5  C4  UNL     1      -0.544   1.440  -0.406  1.00  0.00     0.184 C 
HETATM    6  C5  UNL     1      -1.326   0.817  -1.555  1.00  0.00     0.215 C 
HETATM    7  O2  UNL     1      -0.991   1.484  -2.754  1.00  0.00    -0.218 OA
HETATM    8  O6  UNL     1       0.992  -0.346  -2.934  1.00  0.00    -0.215 OA
HETATM    9  O7  UNL     1      -1.662  -1.423  -0.748  1.00  0.00    -0.218 OA
ENDROOT
BRANCH   3  10
HETATM   10  O4  UNL     1       0.811  -0.932   0.625  1.00  0.00    -0.326 OA
BRANCH  10  11
HETATM   11  C7  UNL     1       1.742  -0.742   1.661  1.00  0.00     0.181 C 
BRANCH  11  12
HETATM   12  C8  UNL     1       1.178  -1.373   2.921  1.00  0.00     0.214 C 
HETATM   13  O5  UNL     1       2.116  -1.250   3.970  1.00  0.00    -0.218 OA
ENDBRANCH  11  12
ENDBRANCH  10  11
ENDBRANCH   3  10
BRANCH   5  14
HETATM   14  C6  UNL     1      -1.160   1.264   0.978  1.00  0.00     0.214 C 
HETATM   15  O3  UNL     1      -2.365   2.001   1.064  1.00  0.00    -0.218 OA
ENDBRANCH   5  14
TORSDOF 4
