REMARK  9 active torsions:
REMARK  status: ('A' for Active; 'I' for Inactive)
REMARK    1  A    between atoms: C5_5  and  C7_7 
REMARK    2  A    between atoms: C7_7  and  C8_8 
REMARK    3  A    between atoms: C9_9  and  C10_10 
REMARK    4  A    between atoms: C10_10  and  C11_11 
REMARK    5  A    between atoms: C13_13  and  O3_21 
REMARK    6  A    between atoms: C14_14  and  O2_19 
REMARK    7  A    between atoms: C15_15  and  O1_17 
REMARK    8  A    between atoms: C20_23  and  O5_26 
REMARK    9  A    between atoms: O5_26  and  C22_27 
ROOT
HETATM    1  C8  UNL     1      -2.068  -2.127   0.790  1.00  0.00     0.039 C 
HETATM    2  C9  UNL     1      -0.789  -1.474   0.234  1.00  0.00     0.064 C 
HETATM    3  C20 UNL     1       0.291  -2.506   0.560  1.00  0.00     0.236 C 
HETATM    4  O4  UNL     1      -0.353  -3.653   1.076  1.00  0.00    -0.331 OA
HETATM    5  C21 UNL     1      -1.693  -3.598   0.671  1.00  0.00     0.145 C 
ENDROOT
BRANCH   2   6
HETATM    6  C10 UNL     1      -0.497  -0.086   0.830  1.00  0.00     0.032 C 
BRANCH   6   7
HETATM    7  C11 UNL     1       0.777   0.599   0.373  1.00  0.00    -0.018 A 
HETATM    8  C12 UNL     1       1.494   1.343   1.227  1.00  0.00     0.022 A 
HETATM    9  C13 UNL     1       2.617   1.989   0.863  1.00  0.00     0.118 A 
HETATM   10  C14 UNL     1       3.048   1.876  -0.419  1.00  0.00     0.138 A 
HETATM   11  C15 UNL     1       2.341   1.144  -1.317  1.00  0.00     0.118 A 
HETATM   12  C16 UNL     1       1.227   0.520  -0.887  1.00  0.00     0.022 A 
BRANCH   9  13
HETATM   13  O3  UNL     1       3.361   2.766   1.726  1.00  0.00    -0.326 OA
HETATM   14  C19 UNL     1       2.954   2.896   3.068  1.00  0.00     0.181 C 
ENDBRANCH   9  13
BRANCH  10  15
HETATM   15  O2  UNL     1       4.197   2.575  -0.739  1.00  0.00    -0.324 OA
HETATM   16  C18 UNL     1       4.282   3.236  -1.981  1.00  0.00     0.182 C 
ENDBRANCH  10  15
BRANCH  11  17
HETATM   17  O1  UNL     1       2.802   1.024  -2.607  1.00  0.00    -0.326 OA
HETATM   18  C17 UNL     1       2.235   0.066  -3.470  1.00  0.00     0.181 C 
ENDBRANCH  11  17
ENDBRANCH   6   7
ENDBRANCH   2   6
BRANCH   1  19
HETATM   19  C7  UNL     1      -3.373  -1.783   0.056  1.00  0.00     0.029 C 
BRANCH  19  20
HETATM   20  C5  UNL     1      -3.731  -0.317   0.184  1.00  0.00    -0.020 A 
HETATM   21  C4  UNL     1      -3.665   0.511  -0.880  1.00  0.00    -0.002 A 
HETATM   22  C3  UNL     1      -3.953   1.820  -0.777  1.00  0.00     0.026 A 
HETATM   23  C2  UNL     1      -4.311   2.292   0.423  1.00  0.00     0.119 A 
HETATM   24  C1  UNL     1      -4.384   1.482   1.484  1.00  0.00     0.119 A 
HETATM   25  O6  UNL     1      -4.603   3.447   0.722  1.00  0.00    -0.300 OA
HETATM   26  C6  UNL     1      -4.103   0.178   1.380  1.00  0.00     0.022 A 
HETATM   27  O7  UNL     1      -4.724   2.096   2.492  1.00  0.00    -0.300 OA
HETATM   28  C24 UNL     1      -4.909   3.462   2.117  1.00  0.00     0.304 A 
ENDBRANCH  19  20
ENDBRANCH   1  19
BRANCH   3  29
HETATM   29  O5  UNL     1       0.958  -2.912  -0.618  1.00  0.00    -0.331 OA
BRANCH  29  30
HETATM   30  C22 UNL     1       2.136  -3.639  -0.365  1.00  0.00     0.145 C 
HETATM   31  C23 UNL     1       2.701  -4.132  -1.694  1.00  0.00     0.035 C 
ENDBRANCH  29  30
ENDBRANCH   3  29
TORSDOF 9
