REMARK  1 active torsions:
REMARK  status: ('A' for Active; 'I' for Inactive)
REMARK    1  A    between atoms: C9_9  and  C11_11 
ROOT
HETATM    1  C1  UNL     1      -2.814   0.502  -1.896  1.00  0.00     0.026 C 
HETATM    2  C2  UNL     1      -2.929  -0.704  -1.006  1.00  0.00    -0.030 C 
HETATM    3  C3  UNL     1      -1.891  -1.169  -0.289  1.00  0.00    -0.030 C 
HETATM    4  C4  UNL     1      -0.761  -0.430  -0.209  1.00  0.00    -0.031 C 
HETATM    5  C5  UNL     1      -0.766   1.073  -0.481  1.00  0.00     0.019 C 
HETATM    6  C6  UNL     1      -2.050   1.597  -1.164  1.00  0.00     0.009 C 
HETATM    7  C7  UNL     1       0.492   1.438  -1.295  1.00  0.00     0.005 C 
HETATM    8  C8  UNL     1       1.776   1.083  -0.532  1.00  0.00     0.009 C 
HETATM    9  C9  UNL     1       1.773  -0.392  -0.107  1.00  0.00     0.040 C 
HETATM   10  C10 UNL     1       0.412  -1.018   0.098  1.00  0.00    -0.027 C 
HETATM   11  C14 UNL     1      -0.732   1.759   0.912  1.00  0.00     0.004 C 
HETATM   12  C15 UNL     1      -1.996  -2.574   0.271  1.00  0.00     0.030 C 
ENDROOT
BRANCH   9  13
HETATM   13  C11 UNL     1       2.713  -0.686   1.046  1.00  0.00    -0.040 C 
HETATM   14  C12 UNL     1       3.885  -1.312   0.854  1.00  0.00    -0.009 C 
HETATM   15  C13 UNL     1       2.286  -0.239   2.424  1.00  0.00     0.026 C 
ENDBRANCH   9  13
TORSDOF 1
