REMARK  1 active torsions:
REMARK  status: ('A' for Active; 'I' for Inactive)
REMARK    1  A    between atoms: C9_9  and  C11_11 
ROOT
HETATM    1  C1  UNL     1      -3.151   1.325  -0.893  1.00  0.00     0.005 C 
HETATM    2  C2  UNL     1      -3.049  -0.182  -0.647  1.00  0.00     0.021 C 
HETATM    3  C3  UNL     1      -1.648  -0.743  -0.771  1.00  0.00    -0.052 C 
HETATM    4  C4  UNL     1      -0.554   0.041  -0.864  1.00  0.00    -0.050 C 
HETATM    5  C5  UNL     1      -0.623   1.564  -0.846  1.00  0.00     0.015 C 
HETATM    6  C6  UNL     1      -1.962   2.031  -0.238  1.00  0.00     0.004 C 
HETATM    7  C7  UNL     1       0.546   2.093   0.023  1.00  0.00     0.006 C 
HETATM    8  C8  UNL     1       0.981   1.052   1.067  1.00  0.00     0.031 C 
HETATM    9  C9  UNL     1       1.590  -0.202   0.412  1.00  0.00     0.130 C 
HETATM   10  C10 UNL     1       0.867  -0.474  -0.921  1.00  0.00     0.052 C 
HETATM   11  O1  UNL     1       2.929   0.098   0.107  1.00  0.00    -0.226 OA
HETATM   12  C14 UNL     1      -0.475   2.123  -2.280  1.00  0.00     0.004 C 
HETATM   13  C15 UNL     1      -1.625  -2.255  -0.701  1.00  0.00     0.026 C 
ENDROOT
BRANCH   9  14
HETATM   14  C11 UNL     1       1.579  -1.415   1.369  1.00  0.00     0.028 C 
HETATM   15  C12 UNL     1       2.368  -2.631   0.840  1.00  0.00     0.003 C 
HETATM   16  C13 UNL     1       2.121  -1.082   2.775  1.00  0.00     0.003 C 
ENDBRANCH   9  14
TORSDOF 1
