REMARK  1 active torsions:
REMARK  status: ('A' for Active; 'I' for Inactive)
REMARK    1  A    between atoms: C9_9  and  C11_11 
ROOT
HETATM    1  C1  UNL     1      -3.253   0.924  -0.174  1.00  0.00     0.025 C 
HETATM    2  C2  UNL     1      -3.143  -0.563  -0.027  1.00  0.00    -0.032 C 
HETATM    3  C3  UNL     1      -2.001  -1.203   0.271  1.00  0.00    -0.021 C 
HETATM    4  C4  UNL     1      -0.658  -0.482   0.423  1.00  0.00     0.142 C 
HETATM    5  C5  UNL     1      -0.732   1.058   0.270  1.00  0.00     0.030 C 
HETATM    6  C6  UNL     1      -2.138   1.588   0.633  1.00  0.00     0.007 C 
HETATM    7  C7  UNL     1      -0.387   1.438  -1.188  1.00  0.00     0.003 C 
HETATM    8  C8  UNL     1       1.078   1.139  -1.530  1.00  0.00     0.004 C 
HETATM    9  C9  UNL     1       1.494  -0.298  -1.158  1.00  0.00     0.021 C 
HETATM   10  C10 UNL     1       0.321  -1.121  -0.586  1.00  0.00     0.038 C 
HETATM   11  C14 UNL     1       0.244   1.795   1.226  1.00  0.00     0.003 C 
HETATM   12  O1  UNL     1      -0.218  -0.771   1.732  1.00  0.00    -0.222 OA
HETATM   13  C15 UNL     1      -2.026  -2.708   0.450  1.00  0.00     0.029 C 
ENDROOT
BRANCH   9  14
HETATM   14  C11 UNL     1       2.830  -0.350  -0.433  1.00  0.00    -0.044 C 
HETATM   15  C12 UNL     1       4.024   0.153  -1.217  1.00  0.00     0.026 C 
HETATM   16  C13 UNL     1       3.000  -0.835   0.807  1.00  0.00    -0.009 C 
ENDBRANCH   9  14
TORSDOF 1
