REMARK  3 active torsions:
REMARK  status: ('A' for Active; 'I' for Inactive)
REMARK    1  A    between atoms: C9_9  and  C13_15 
REMARK    2  A    between atoms: C10_10  and  O1_11 
REMARK    3  A    between atoms: O1_11  and  C11_12 
ROOT
HETATM    1  C1  UNL     1      -3.403   0.901   0.273  1.00  0.00     0.025 C 
HETATM    2  C2  UNL     1      -3.139  -0.418   0.936  1.00  0.00    -0.035 C 
HETATM    3  C3  UNL     1      -1.901  -0.781   1.305  1.00  0.00    -0.046 C 
HETATM    4  C4  UNL     1      -0.692   0.075   0.963  1.00  0.00     0.048 C 
HETATM    5  C5  UNL     1      -0.987   1.598   0.827  1.00  0.00     0.006 C 
HETATM    6  C6  UNL     1      -2.494   1.932   0.948  1.00  0.00     0.005 C 
HETATM    7  C7  UNL     1      -0.469   2.146  -0.523  1.00  0.00     0.003 C 
HETATM    8  C8  UNL     1       0.979   1.742  -0.831  1.00  0.00     0.033 C 
HETATM    9  C9  UNL     1       1.296   0.246  -0.644  1.00  0.00     0.152 C 
HETATM   10  C10 UNL     1       0.024  -0.528  -0.264  1.00  0.00     0.156 C 
HETATM   11  O3  UNL     1       1.721  -0.263  -1.885  1.00  0.00    -0.224 OA
HETATM   12  C16 UNL     1      -0.280   2.377   1.967  1.00  0.00     0.000 C 
HETATM   13  C17 UNL     1      -1.653  -2.093   2.011  1.00  0.00     0.026 C 
ENDROOT
BRANCH   9  14
HETATM   14  C13 UNL     1       2.480   0.031   0.336  1.00  0.00     0.030 C 
HETATM   15  C14 UNL     1       2.773  -1.445   0.677  1.00  0.00     0.003 C 
HETATM   16  C15 UNL     1       3.796   0.657  -0.176  1.00  0.00     0.003 C 
ENDBRANCH   9  14
BRANCH  10  17
HETATM   17  O1  UNL     1      -0.873  -0.562  -1.342  1.00  0.00    -0.301 OA
BRANCH  17  18
HETATM   18  C11 UNL     1      -1.042  -1.621  -2.186  1.00  0.00     0.272 C 
HETATM   19  O2  UNL     1      -1.815  -1.570  -3.121  1.00  0.00    -0.264 OA
HETATM   20  C12 UNL     1      -0.254  -2.886  -1.899  1.00  0.00     0.106 C 
ENDBRANCH  17  18
ENDBRANCH  10  17
TORSDOF 3
