REMARK  4 active torsions:
REMARK  status: ('A' for Active; 'I' for Inactive)
REMARK    1  A    between atoms: C5_5  and  O1_9 
REMARK    2  A    between atoms: O1_9  and  C9_10 
REMARK    3  A    between atoms: C9_10  and  C10_12 
REMARK    4  A    between atoms: C12_14  and  C13_15 
ROOT
HETATM    1  C1  UNL     1      -2.531   0.791  -0.467  1.00  0.00     0.056 C 
HETATM    2  C2  UNL     1      -2.555  -0.755  -0.317  1.00  0.00     0.062 C 
HETATM    3  C3  UNL     1      -1.302  -1.343   0.340  1.00  0.00     0.134 C 
HETATM    4  C4  UNL     1      -0.043  -1.077  -0.501  1.00  0.00     0.084 C 
HETATM    5  C5  UNL     1       0.815   0.116  -0.064  1.00  0.00     0.135 C 
HETATM    6  C6  UNL     1      -0.069   1.307   0.317  1.00  0.00     0.053 C 
HETATM    7  C7  UNL     1      -1.214   1.529  -0.647  1.00  0.00    -0.039 C 
HETATM    8  C8  UNL     1      -1.048   2.400  -1.659  1.00  0.00    -0.009 C 
HETATM    9  C14 UNL     1       0.635  -2.420  -0.494  1.00  0.00     0.045 C 
HETATM   10  C15 UNL     1      -0.245  -3.297   0.041  1.00  0.00     0.292 C 
HETATM   11  O4  UNL     1      -1.405  -2.738   0.474  1.00  0.00    -0.301 OA
HETATM   12  O5  UNL     1      -0.034  -4.488   0.132  1.00  0.00    -0.260 OA
HETATM   13  C16 UNL     1       1.853  -2.728  -0.957  1.00  0.00     0.001 C 
HETATM   14  C17 UNL     1      -3.882  -1.030   0.393  1.00  0.00     0.123 A 
HETATM   15  C18 UNL     1      -4.448   0.177   0.916  1.00  0.00     0.171 A 
HETATM   16  C19 UNL     1      -3.458   1.303   0.650  1.00  0.00     0.185 C 
HETATM   17  O6  UNL     1      -2.745   1.556   1.844  1.00  0.00    -0.220 OA
HETATM   18  O7  UNL     1      -5.109  -0.230  -0.258  1.00  0.00    -0.354 OA
HETATM   19  C20 UNL     1      -4.324  -2.396   0.868  1.00  0.00     0.032 C 
ENDROOT
BRANCH   5  20
HETATM   20  O1  UNL     1       1.599  -0.258   1.030  1.00  0.00    -0.300 OA
BRANCH  20  21
HETATM   21  C9  UNL     1       2.965  -0.134   1.131  1.00  0.00     0.291 C 
HETATM   22  O2  UNL     1       3.464  -0.842   1.986  1.00  0.00    -0.260 OA
BRANCH  21  23
HETATM   23  C10 UNL     1       3.873   0.642   0.457  1.00  0.00     0.040 C 
HETATM   24  C11 UNL     1       5.339   0.366   0.765  1.00  0.00     0.036 C 
HETATM   25  C12 UNL     1       3.550   1.616  -0.416  1.00  0.00     0.010 C 
BRANCH  25  26
HETATM   26  C13 UNL     1       4.522   2.468  -1.195  1.00  0.00     0.208 C 
HETATM   27  O3  UNL     1       5.101   1.716  -2.253  1.00  0.00    -0.215 OA
ENDBRANCH  25  26
ENDBRANCH  21  23
ENDBRANCH  20  21
ENDBRANCH   5  20
TORSDOF 4
