REMARK  1 active torsions:
REMARK  status: ('A' for Active; 'I' for Inactive)
REMARK    1  A    between atoms: C7_7  and  C8_8 
ROOT
HETATM    1  C1  UNL     1      -1.220   0.805  -0.459  1.00  0.00     0.070 C 
HETATM    2  C2  UNL     1      -1.006  -0.735  -0.532  1.00  0.00     0.051 C 
HETATM    3  C3  UNL     1       0.205  -1.242   0.247  1.00  0.00     0.135 C 
HETATM    4  C4  UNL     1       1.523  -0.827  -0.413  1.00  0.00     0.086 C 
HETATM    5  C5  UNL     1       2.123   0.454   0.146  1.00  0.00     0.161 C 
HETATM    6  C6  UNL     1       1.114   1.572   0.421  1.00  0.00     0.065 C 
HETATM    7  C7  UNL     1      -0.030   1.787  -0.585  1.00  0.00     0.147 C 
HETATM    8  O1  UNL     1       0.491   1.650  -1.884  1.00  0.00    -0.225 OA
HETATM    9  O2  UNL     1       2.785   0.153   1.355  1.00  0.00    -0.223 OA
HETATM   10  C9  UNL     1       2.352  -2.073  -0.276  1.00  0.00     0.045 C 
HETATM   11  C10 UNL     1       1.503  -3.058   0.101  1.00  0.00     0.292 C 
HETATM   12  O3  UNL     1       0.227  -2.644   0.330  1.00  0.00    -0.300 OA
HETATM   13  O4  UNL     1       1.834  -4.217   0.224  1.00  0.00    -0.260 OA
HETATM   14  C11 UNL     1       3.659  -2.222  -0.523  1.00  0.00     0.001 C 
HETATM   15  C12 UNL     1      -2.313  -1.237   0.047  1.00  0.00    -0.043 C 
HETATM   16  C13 UNL     1      -2.968  -0.279   0.711  1.00  0.00    -0.002 C 
HETATM   17  C14 UNL     1      -2.229   1.025   0.688  1.00  0.00     0.176 C 
HETATM   18  O5  UNL     1      -1.601   1.204   1.938  1.00  0.00    -0.218 OA
HETATM   19  C15 UNL     1      -2.802  -2.646  -0.131  1.00  0.00     0.026 C 
ENDROOT
BRANCH   7  20
HETATM   20  C8  UNL     1      -0.573   3.222  -0.497  1.00  0.00     0.126 C 
HETATM   21 CL1  UNL     1       0.615   4.453  -1.010  1.00  0.00    -0.111 Cl
ENDBRANCH   7  20
TORSDOF 1
