REMARK  5 active torsions:
REMARK  status: ('A' for Active; 'I' for Inactive)
REMARK    1  A    between atoms: C5_5  and  O2_11 
REMARK    2  A    between atoms: C7_7  and  C8_8 
REMARK    3  A    between atoms: O2_11  and  C9_12 
REMARK    4  A    between atoms: C9_12  and  C10_14 
REMARK    5  A    between atoms: C12_16  and  C13_17 
ROOT
HETATM    1  C1  UNL     1      -2.337   0.544  -0.757  1.00  0.00     0.067 C 
HETATM    2  C2  UNL     1      -2.302  -1.012  -0.677  1.00  0.00     0.061 C 
HETATM    3  C3  UNL     1      -1.146  -1.581   0.150  1.00  0.00     0.134 C 
HETATM    4  C4  UNL     1       0.217  -1.292  -0.487  1.00  0.00     0.083 C 
HETATM    5  C5  UNL     1       0.939  -0.068   0.081  1.00  0.00     0.134 C 
HETATM    6  C6  UNL     1       0.002   1.137   0.246  1.00  0.00     0.062 C 
HETATM    7  C7  UNL     1      -1.050   1.407  -0.844  1.00  0.00     0.147 C 
HETATM    8  O1  UNL     1      -0.458   1.173  -2.098  1.00  0.00    -0.225 OA
HETATM    9  C14 UNL     1       0.934  -2.607  -0.340  1.00  0.00     0.045 C 
HETATM   10  C15 UNL     1       0.003  -3.507   0.051  1.00  0.00     0.292 C 
HETATM   11  O5  UNL     1      -1.230  -2.978   0.273  1.00  0.00    -0.301 OA
HETATM   12  O6  UNL     1       0.232  -4.689   0.193  1.00  0.00    -0.260 OA
HETATM   13  C16 UNL     1       2.223  -2.873  -0.585  1.00  0.00     0.001 C 
HETATM   14  C17 UNL     1      -3.696  -1.392  -0.167  1.00  0.00     0.123 A 
HETATM   15  C18 UNL     1      -4.363  -0.249   0.378  1.00  0.00     0.170 A 
HETATM   16  C19 UNL     1      -3.404   0.928   0.291  1.00  0.00     0.184 C 
HETATM   17  O7  UNL     1      -2.827   1.128   1.565  1.00  0.00    -0.221 OA
HETATM   18  O8  UNL     1      -4.881  -0.590  -0.886  1.00  0.00    -0.354 OA
HETATM   19  C20 UNL     1      -4.133  -2.800   0.174  1.00  0.00     0.032 C 
ENDROOT
BRANCH   5  20
HETATM   20  O2  UNL     1       1.461  -0.422   1.329  1.00  0.00    -0.301 OA
BRANCH  20  21
HETATM   21  C9  UNL     1       2.753  -0.271   1.769  1.00  0.00     0.291 C 
HETATM   22  O3  UNL     1       3.022  -0.947   2.745  1.00  0.00    -0.260 OA
BRANCH  21  23
HETATM   23  C10 UNL     1       3.801   0.491   1.321  1.00  0.00     0.040 C 
HETATM   24  C11 UNL     1       5.133   0.277   2.029  1.00  0.00     0.036 C 
HETATM   25  C12 UNL     1       3.708   1.414   0.345  1.00  0.00     0.010 C 
BRANCH  25  26
HETATM   26  C13 UNL     1       4.841   2.238  -0.215  1.00  0.00     0.208 C 
HETATM   27  O4  UNL     1       4.534   2.672  -1.536  1.00  0.00    -0.215 OA
ENDBRANCH  25  26
ENDBRANCH  21  23
ENDBRANCH  20  21
ENDBRANCH   5  20
BRANCH   7  28
HETATM   28  C8  UNL     1      -1.459   2.891  -0.853  1.00  0.00     0.125 C 
HETATM   29 CL1  UNL     1      -0.131   3.984  -1.332  1.00  0.00    -0.111 Cl
ENDBRANCH   7  28
TORSDOF 5
