REMARK  4 active torsions:
REMARK  status: ('A' for Active; 'I' for Inactive)
REMARK    1  A    between atoms: C5_5  and  O2_10 
REMARK    2  A    between atoms: C7_7  and  C8_8 
REMARK    3  A    between atoms: O2_10  and  C9_11 
REMARK    4  A    between atoms: C9_11  and  C10_13 
ROOT
HETATM    1  C1  UNL     1      -2.158   0.365   1.829  1.00  0.00    -0.018 C 
HETATM    2  C2  UNL     1      -1.747  -1.061   1.443  1.00  0.00     0.082 C 
HETATM    3  C3  UNL     1      -0.667  -1.220   0.366  1.00  0.00     0.138 C 
HETATM    4  C4  UNL     1      -0.541  -0.008  -0.563  1.00  0.00     0.084 C 
HETATM    5  C5  UNL     1       0.344   1.124  -0.034  1.00  0.00     0.136 C 
HETATM    6  C6  UNL     1       0.150   1.282   1.483  1.00  0.00     0.060 C 
HETATM    7  C7  UNL     1      -1.319   1.427   1.855  1.00  0.00     0.019 C 
HETATM    8  C14 UNL     1      -0.314  -0.641  -1.903  1.00  0.00     0.045 C 
HETATM    9  C15 UNL     1      -0.561  -1.964  -1.740  1.00  0.00     0.292 C 
HETATM   10  O4  UNL     1      -0.834  -2.346  -0.456  1.00  0.00    -0.300 OA
HETATM   11  O5  UNL     1      -0.559  -2.762  -2.651  1.00  0.00    -0.260 OA
HETATM   12  C16 UNL     1       0.013  -0.035  -3.051  1.00  0.00     0.001 C 
HETATM   13  C17 UNL     1      -3.097  -1.753   1.179  1.00  0.00     0.151 C 
HETATM   14  C18 UNL     1      -4.029  -0.803   1.876  1.00  0.00     0.004 C 
HETATM   15  C19 UNL     1      -3.468   0.382   2.141  1.00  0.00    -0.006 C 
HETATM   16  C20 UNL     1      -3.197  -3.181   1.698  1.00  0.00     0.038 C 
HETATM   17  O6  UNL     1      -3.403  -1.728  -0.199  1.00  0.00    -0.221 OA
ENDROOT
BRANCH   5  18
HETATM   18  O2  UNL     1       1.718   1.126  -0.327  1.00  0.00    -0.300 OA
BRANCH  18  19
HETATM   19  C9  UNL     1       2.454   0.056  -0.734  1.00  0.00     0.291 C 
HETATM   20  O3  UNL     1       1.993  -1.060  -0.667  1.00  0.00    -0.260 OA
BRANCH  19  21
HETATM   21  C10 UNL     1       3.698   0.165  -1.283  1.00  0.00     0.037 C 
HETATM   22  C11 UNL     1       4.367  -1.101  -1.788  1.00  0.00     0.036 C 
HETATM   23  C12 UNL     1       4.344   1.342  -1.403  1.00  0.00    -0.025 C 
HETATM   24  C13 UNL     1       3.914   2.712  -0.947  1.00  0.00     0.030 C 
ENDBRANCH  19  21
ENDBRANCH  18  19
ENDBRANCH   5  18
BRANCH   7  25
HETATM   25  C8  UNL     1      -1.749   2.680   2.167  1.00  0.00     0.230 C 
HETATM   26  O1  UNL     1      -1.029   3.650   2.168  1.00  0.00    -0.283 OA
ENDBRANCH   7  25
TORSDOF 4
