REMARK  3 active torsions:
REMARK  status: ('A' for Active; 'I' for Inactive)
REMARK    1  A    between atoms: C7_7  and  O1_12 
REMARK    2  A    between atoms: O1_12  and  C12_13 
REMARK    3  A    between atoms: C14_16  and  C16_20 
ROOT
HETATM    1  C1  UNL     1      -2.705   2.427   0.142  1.00  0.00     0.178 C 
HETATM    2  C2  UNL     1      -2.967   1.862  -1.267  1.00  0.00     0.059 C 
HETATM    3  C3  UNL     1      -1.813   0.992  -1.730  1.00  0.00    -0.043 C 
HETATM    4  C4  UNL     1      -1.565  -0.158  -1.077  1.00  0.00    -0.005 C 
HETATM    5  C5  UNL     1      -0.330  -1.021  -1.159  1.00  0.00     0.151 C 
HETATM    6  C6  UNL     1       0.970  -0.347  -0.694  1.00  0.00     0.099 C 
HETATM    7  C7  UNL     1       1.252  -0.212   0.815  1.00  0.00     0.134 C 
HETATM    8  C8  UNL     1       0.711   1.058   1.502  1.00  0.00     0.052 C 
HETATM    9  C9  UNL     1      -0.786   1.283   1.406  1.00  0.00    -0.043 C 
HETATM   10  C10 UNL     1      -1.268   2.214   0.559  1.00  0.00    -0.002 C 
HETATM   11  C11 UNL     1      -1.635   0.380   2.273  1.00  0.00     0.026 C 
HETATM   12  C14 UNL     1       2.005  -1.151  -1.496  1.00  0.00     0.223 C 
HETATM   13  C15 UNL     1       1.215  -1.499  -2.749  1.00  0.00     0.301 C 
HETATM   14  O3  UNL     1      -0.109  -1.496  -2.464  1.00  0.00    -0.298 OA
HETATM   15  O4  UNL     1       1.709  -1.770  -3.821  1.00  0.00    -0.262 OA
HETATM   16  O5  UNL     1       3.097  -0.328  -1.841  1.00  0.00    -0.214 OA
HETATM   17  C17 UNL     1      -0.943   1.598  -2.805  1.00  0.00     0.026 C 
HETATM   18  O6  UNL     1      -2.983   3.817   0.159  1.00  0.00    -0.218 OA
ENDROOT
BRANCH   7  19
HETATM   19  O1  UNL     1       0.842  -1.372   1.475  1.00  0.00    -0.304 OA
BRANCH  19  20
HETATM   20  C12 UNL     1       1.466  -1.730   2.629  1.00  0.00     0.272 C 
HETATM   21  C13 UNL     1       0.881  -3.026   3.153  1.00  0.00     0.106 C 
HETATM   22  O2  UNL     1       2.367  -1.117   3.156  1.00  0.00    -0.264 OA
ENDBRANCH  19  20
ENDBRANCH   7  19
BRANCH  12  23
HETATM   23  C16 UNL     1       2.567  -2.408  -0.835  1.00  0.00     0.135 C 
HETATM   24 CL1  UNL     1       3.776  -3.201  -1.881  1.00  0.00    -0.111 Cl
ENDBRANCH  12  23
TORSDOF 3
