REMARK  5 active torsions:
REMARK  status: ('A' for Active; 'I' for Inactive)
REMARK    1  A    between atoms: C5_5  and  O2_11 
REMARK    2  A    between atoms: C7_7  and  C8_8 
REMARK    3  A    between atoms: O2_11  and  C9_12 
REMARK    4  A    between atoms: C9_12  and  C10_13 
REMARK    5  A    between atoms: C11_14  and  C12_15 
ROOT
HETATM    1  C1  UNL     1       0.359   1.390  -2.680  1.00  0.00     0.056 C 
HETATM    2  C2  UNL     1       0.465  -0.169  -2.601  1.00  0.00     0.067 C 
HETATM    3  C3  UNL     1       0.254  -0.742  -1.193  1.00  0.00     0.134 C 
HETATM    4  C4  UNL     1       1.312  -0.277  -0.185  1.00  0.00     0.083 C 
HETATM    5  C5  UNL     1       0.859   0.921   0.646  1.00  0.00     0.134 C 
HETATM    6  C6  UNL     1       0.309   2.077  -0.206  1.00  0.00     0.063 C 
HETATM    7  C7  UNL     1       0.921   2.333  -1.592  1.00  0.00     0.148 C 
HETATM    8  O1  UNL     1       2.315   2.172  -1.552  1.00  0.00    -0.224 OA
HETATM    9  C14 UNL     1       1.629  -1.540   0.569  1.00  0.00     0.045 C 
HETATM   10  C15 UNL     1       1.041  -2.548  -0.112  1.00  0.00     0.292 C 
HETATM   11  O5  UNL     1       0.301  -2.146  -1.179  1.00  0.00    -0.301 OA
HETATM   12  O6  UNL     1       1.155  -3.718   0.186  1.00  0.00    -0.260 OA
HETATM   13  C16 UNL     1       2.394  -1.681   1.658  1.00  0.00     0.001 C 
HETATM   14  C17 UNL     1      -0.606  -0.642  -3.624  1.00  0.00     0.148 C 
HETATM   15  C18 UNL     1      -1.644   0.439  -3.480  1.00  0.00    -0.001 C 
HETATM   16  C19 UNL     1      -1.116   1.551  -2.962  1.00  0.00    -0.026 C 
HETATM   17  C20 UNL     1      -1.225  -2.028  -3.492  1.00  0.00     0.038 C 
HETATM   18  O7  UNL     1      -0.045  -0.555  -4.919  1.00  0.00    -0.221 OA
ENDROOT
BRANCH   5  19
HETATM   19  O2  UNL     1      -0.176   0.500   1.494  1.00  0.00    -0.301 OA
BRANCH  19  20
HETATM   20  C9  UNL     1       0.021   0.291   2.830  1.00  0.00     0.291 C 
HETATM   21  O4  UNL     1       1.018   0.725   3.366  1.00  0.00    -0.260 OA
BRANCH  20  22
HETATM   22  C10 UNL     1      -0.867  -0.475   3.528  1.00  0.00     0.040 C 
HETATM   23  C11 UNL     1      -0.665  -0.737   4.834  1.00  0.00     0.010 C 
HETATM   24  C13 UNL     1      -2.061  -1.011   2.764  1.00  0.00     0.036 C 
BRANCH  23  25
HETATM   25  C12 UNL     1      -1.563  -1.588   5.695  1.00  0.00     0.208 C 
HETATM   26  O3  UNL     1      -1.535  -2.944   5.268  1.00  0.00    -0.215 OA
ENDBRANCH  23  25
ENDBRANCH  20  22
ENDBRANCH  19  20
ENDBRANCH   5  19
BRANCH   7  27
HETATM   27  C8  UNL     1       0.696   3.794  -2.026  1.00  0.00     0.126 C 
HETATM   28 CL1  UNL     1       1.606   4.967  -1.033  1.00  0.00    -0.111 Cl
ENDBRANCH   7  27
TORSDOF 5
