REMARK  5 active torsions:
REMARK  status: ('A' for Active; 'I' for Inactive)
REMARK    1  A    between atoms: C3_3  and  C28_31 
REMARK    2  A    between atoms: C16_16  and  C24_25 
REMARK    3  A    between atoms: C28_31  and  O4_32 
REMARK    4  A    between atoms: O4_32  and  C29_33 
REMARK    5  A    between atoms: C30_35  and  C34_42 
ROOT
HETATM    1  C1  UNL     1      -3.782   0.618  -2.371  1.00  0.00     0.033 C 
HETATM    2  C2  UNL     1      -3.679  -0.895  -2.559  1.00  0.00     0.154 C 
HETATM    3  C3  UNL     1      -2.580  -1.524  -1.669  1.00  0.00     0.056 C 
HETATM    4  C4  UNL     1      -2.886  -1.144  -0.174  1.00  0.00     0.005 C 
HETATM    5  C5  UNL     1      -3.169   0.350   0.173  1.00  0.00     0.001 C 
HETATM    6  C6  UNL     1      -4.092   0.973  -0.917  1.00  0.00     0.003 C 
HETATM    7  C7  UNL     1      -1.809   1.111   0.351  1.00  0.00     0.005 C 
HETATM    8  C8  UNL     1      -0.694   0.485   1.247  1.00  0.00     0.004 C 
HETATM    9  C9  UNL     1      -0.641  -1.051   1.075  1.00  0.00     0.000 C 
HETATM   10  C10 UNL     1      -1.986  -1.757   0.915  1.00  0.00     0.000 C 
HETATM   11  C11 UNL     1       0.715   1.127   0.885  1.00  0.00     0.015 C 
HETATM   12  C12 UNL     1       0.623   2.653   0.986  1.00  0.00    -0.049 C 
HETATM   13  C13 UNL     1      -0.565   3.276   0.875  1.00  0.00    -0.035 C 
HETATM   14  C14 UNL     1      -1.905   2.610   0.682  1.00  0.00     0.025 C 
HETATM   15  C15 UNL     1       1.940   3.424   1.079  1.00  0.00     0.030 C 
HETATM   16  C16 UNL     1       2.829   2.865   2.215  1.00  0.00     0.082 C 
HETATM   17  C17 UNL     1       3.106   1.380   1.895  1.00  0.00     0.011 C 
HETATM   18  C18 UNL     1       1.808   0.567   1.836  1.00  0.00     0.004 C 
HETATM   19  C19 UNL     1       4.179   3.613   2.271  1.00  0.00     0.013 C 
HETATM   20  C20 UNL     1       4.013   5.135   2.342  1.00  0.00     0.031 C 
HETATM   21  C21 UNL     1       3.203   5.663   1.157  1.00  0.00     0.127 C 
HETATM   22  C22 UNL     1       1.841   4.964   1.098  1.00  0.00     0.035 C 
HETATM   23  C23 UNL     1       3.041   7.182   1.244  1.00  0.00     0.033 C 
HETATM   24  O1  UNL     1       3.905   5.386  -0.028  1.00  0.00    -0.226 OA
HETATM   25  C25 UNL     1       1.206   0.852  -0.564  1.00  0.00     0.004 C 
HETATM   26  C26 UNL     1      -0.995   0.777   2.748  1.00  0.00     0.000 C 
HETATM   27  C27 UNL     1      -4.075   0.431   1.440  1.00  0.00     0.000 C 
HETATM   28  C35 UNL     1      -1.246  -1.047  -2.300  1.00  0.00     0.005 C 
HETATM   29  O10 UNL     1      -4.934  -1.484  -2.301  1.00  0.00    -0.223 OA
ENDROOT
BRANCH   3  30
HETATM   30  C28 UNL     1      -2.603  -3.067  -1.869  1.00  0.00     0.147 C 
BRANCH  30  31
HETATM   31  O4  UNL     1      -1.352  -3.632  -1.546  1.00  0.00    -0.329 OA
BRANCH  31  32
HETATM   32  C29 UNL     1      -1.190  -4.978  -1.924  1.00  0.00     0.270 C 
HETATM   33  O5  UNL     1      -0.442  -5.622  -0.914  1.00  0.00    -0.326 OA
HETATM   34  C30 UNL     1       0.917  -5.279  -0.831  1.00  0.00     0.184 C 
HETATM   35  C31 UNL     1       1.644  -5.422  -2.164  1.00  0.00     0.215 C 
HETATM   36  C32 UNL     1       0.917  -4.762  -3.322  1.00  0.00     0.220 C 
HETATM   37  O8  UNL     1       1.781  -6.793  -2.464  1.00  0.00    -0.218 OA
HETATM   38  C33 UNL     1      -0.554  -5.133  -3.287  1.00  0.00     0.241 C 
HETATM   39  O7  UNL     1       1.078  -3.366  -3.272  1.00  0.00    -0.218 OA
HETATM   40  O6  UNL     1      -0.680  -6.484  -3.673  1.00  0.00    -0.215 OA
BRANCH  34  41
HETATM   41  C34 UNL     1       1.143  -3.950  -0.125  1.00  0.00     0.214 C 
HETATM   42  O9  UNL     1       2.491  -3.836   0.285  1.00  0.00    -0.218 OA
ENDBRANCH  34  41
ENDBRANCH  31  32
ENDBRANCH  30  31
ENDBRANCH   3  30
BRANCH  16  43
HETATM   43  C24 UNL     1       2.131   3.013   3.567  1.00  0.00     0.184 C 
HETATM   44  O2  UNL     1       1.163   3.688   3.823  1.00  0.00    -0.647 OA
HETATM   45  O3  UNL     1       2.725   2.294   4.538  1.00  0.00    -0.647 OA
ENDBRANCH  16  43
TORSDOF 5
