REMARK  7 active torsions:
REMARK  status: ('A' for Active; 'I' for Inactive)
REMARK    1  A    between atoms: C2_2  and  O5_35 
REMARK    2  A    between atoms: C16_16  and  C25_27 
REMARK    3  A    between atoms: C21_21  and  C24_24 
REMARK    4  A    between atoms: O5_35  and  C31_36 
REMARK    5  A    between atoms: C32_38  and  C42_55 
REMARK    6  A    between atoms: C33_39  and  O9_44 
REMARK    7  A    between atoms: O9_44  and  C36_45 
ROOT
HETATM    1  C1  UNL     1      -1.585  -0.008  -2.518  1.00  0.00     0.030 C 
HETATM    2  C2  UNL     1      -1.524  -0.344  -0.604  1.00  0.00     0.118 C 
HETATM    3  C3  UNL     1      -3.210  -0.009   0.338  1.00  0.00     0.025 C 
HETATM    4  C4  UNL     1      -4.407   0.508  -0.795  1.00  0.00     0.002 C 
HETATM    5  C5  UNL     1      -3.990   1.493  -2.010  1.00  0.00     0.001 C 
HETATM    6  C6  UNL     1      -3.023   0.776  -3.146  1.00  0.00     0.003 C 
HETATM    7  C7  UNL     1      -2.833   2.416  -1.674  1.00  0.00     0.005 C 
HETATM    8  C8  UNL     1      -2.109   1.269  -1.014  1.00  0.00     0.004 C 
HETATM    9  C9  UNL     1      -3.103  -0.514  -1.495  1.00  0.00     0.000 C 
HETATM   10  C10 UNL     1      -4.623  -0.723  -1.594  1.00  0.00     0.000 C 
HETATM   11  C11 UNL     1      -0.310   1.873  -1.182  1.00  0.00     0.015 C 
HETATM   12  C12 UNL     1      -0.256   3.447  -1.040  1.00  0.00    -0.049 C 
HETATM   13  C13 UNL     1      -1.357   4.236  -0.981  1.00  0.00    -0.035 C 
HETATM   14  C14 UNL     1      -2.818   3.819  -1.093  1.00  0.00     0.025 C 
HETATM   15  C15 UNL     1       1.112   4.165  -0.899  1.00  0.00     0.028 C 
HETATM   16  C16 UNL     1       2.017   3.722   0.273  1.00  0.00     0.082 C 
HETATM   17  C17 UNL     1       2.196   2.214   0.087  1.00  0.00     0.011 C 
HETATM   18  C18 UNL     1       0.851   1.483  -0.090  1.00  0.00     0.004 C 
HETATM   19  C19 UNL     1       3.433   4.356   0.262  1.00  0.00     0.011 C 
HETATM   20  C20 UNL     1       3.597   5.408  -0.844  1.00  0.00     0.011 C 
HETATM   21  C21 UNL     1       3.280   4.829  -2.239  1.00  0.00     0.079 C 
HETATM   22  C22 UNL     1       1.921   4.117  -2.199  1.00  0.00     0.015 C 
HETATM   23  C23 UNL     1       3.138   5.925  -3.307  1.00  0.00     0.011 C 
HETATM   24  C26 UNL     1       0.574   1.510  -2.405  1.00  0.00     0.004 C 
HETATM   25  C27 UNL     1      -1.798   1.869   0.547  1.00  0.00     0.000 C 
HETATM   26  C28 UNL     1      -5.280   2.226  -2.420  1.00  0.00     0.000 C 
HETATM   27  C29 UNL     1      -3.902   1.091   1.291  1.00  0.00     0.002 C 
HETATM   28  C30 UNL     1      -3.548  -1.133   1.352  1.00  0.00     0.002 C 
ENDROOT
BRANCH   2  29
HETATM   29  O5  UNL     1      -0.993  -1.593  -0.392  1.00  0.00    -0.332 OA
BRANCH  29  30
HETATM   30  C31 UNL     1      -0.329  -1.729   0.839  1.00  0.00     0.270 C 
HETATM   31  O6  UNL     1       1.045  -1.889   0.548  1.00  0.00    -0.326 OA
HETATM   32  C32 UNL     1       1.318  -2.935  -0.361  1.00  0.00     0.181 C 
HETATM   33  C33 UNL     1       0.745  -4.231   0.264  1.00  0.00     0.181 C 
HETATM   34  C34 UNL     1      -0.723  -4.132   0.650  1.00  0.00     0.217 C 
HETATM   35  C35 UNL     1      -0.946  -2.906   1.503  1.00  0.00     0.241 C 
HETATM   36  O8  UNL     1      -1.530  -4.057  -0.511  1.00  0.00    -0.218 OA
HETATM   37  O7  UNL     1      -0.528  -2.923   2.835  1.00  0.00    -0.215 OA
BRANCH  32  38
HETATM   38  C42 UNL     1       0.941  -2.592  -1.822  1.00  0.00     0.214 C 
HETATM   39  O14 UNL     1       1.997  -2.629  -2.762  1.00  0.00    -0.218 OA
ENDBRANCH  32  38
BRANCH  33  40
HETATM   40  O9  UNL     1       1.496  -4.438   1.431  1.00  0.00    -0.326 OA
BRANCH  40  41
HETATM   41  C36 UNL     1       1.183  -5.565   2.221  1.00  0.00     0.270 C 
HETATM   42  O10 UNL     1       0.708  -5.109   3.475  1.00  0.00    -0.329 OA
HETATM   43  C37 UNL     1       1.610  -4.267   4.156  1.00  0.00     0.151 C 
HETATM   44  C38 UNL     1       2.908  -5.000   4.427  1.00  0.00     0.212 C 
HETATM   45  C41 UNL     1       0.962  -3.693   5.423  1.00  0.00     0.035 C 
HETATM   46  C39 UNL     1       3.462  -5.613   3.154  1.00  0.00     0.220 C 
HETATM   47  O13 UNL     1       3.849  -4.079   4.926  1.00  0.00    -0.218 OA
HETATM   48  C40 UNL     1       2.410  -6.409   2.412  1.00  0.00     0.241 C 
HETATM   49  O12 UNL     1       4.542  -6.458   3.451  1.00  0.00    -0.218 OA
HETATM   50  O11 UNL     1       2.037  -7.556   3.138  1.00  0.00    -0.215 OA
ENDBRANCH  40  41
ENDBRANCH  33  40
ENDBRANCH  29  30
ENDBRANCH   2  29
BRANCH  16  51
HETATM   51  C25 UNL     1       1.391   3.995   1.642  1.00  0.00     0.184 C 
HETATM   52  O3  UNL     1       0.862   5.222   1.721  1.00  0.00    -0.647 OA
HETATM   53  O4  UNL     1       1.403   3.246   2.591  1.00  0.00    -0.647 OA
ENDBRANCH  16  51
BRANCH  21  54
HETATM   54  C24 UNL     1       4.397   3.847  -2.659  1.00  0.00     0.184 C 
HETATM   55  O1  UNL     1       4.133   3.187  -3.801  1.00  0.00    -0.647 OA
HETATM   56  O2  UNL     1       5.413   3.621  -2.046  1.00  0.00    -0.647 OA
ENDBRANCH  21  54
TORSDOF 7
