REMARK  5 active torsions:
REMARK  status: ('A' for Active; 'I' for Inactive)
REMARK    1  A    between atoms: C3_3  and  C8_10 
REMARK    2  A    between atoms: C5_5  and  C7_7 
REMARK    3  A    between atoms: C10_12  and  C19_22 
REMARK    4  A    between atoms: C14_17  and  C16_19 
REMARK    5  A    between atoms: C20_26  and  C22_28 
ROOT
HETATM    1  C1  UNL     1       6.163  -3.317  -0.254  1.00  0.00     0.003 A 
HETATM    2  C2  UNL     1       6.127  -4.657  -0.284  1.00  0.00     0.090 A 
HETATM    3  C3  UNL     1       7.218  -5.426  -0.068  1.00  0.00     0.024 A 
HETATM    4  C4  UNL     1       8.349  -4.711   0.150  1.00  0.00     0.008 A 
HETATM    5  C5  UNL     1       8.416  -3.363   0.175  1.00  0.00     0.064 A 
HETATM    6  C6  UNL     1       7.296  -2.649  -0.023  1.00  0.00     0.004 A 
HETATM    7  O6  UNL     1       5.000  -5.060  -0.573  1.00  0.00    -0.329 OA
HETATM    8  C20 UNL     1       4.034  -4.013  -0.500  1.00  0.00     0.144 C 
HETATM    9  C21 UNL     1       4.828  -2.701  -0.552  1.00  0.00     0.063 C 
ENDROOT
BRANCH   3  10
HETATM   10  C8  UNL     1       7.209  -6.790  -0.059  1.00  0.00     0.024 A 
HETATM   11  C9  UNL     1       8.335  -7.516  -0.268  1.00  0.00     0.008 A 
HETATM   12  C10 UNL     1       8.390  -8.864  -0.285  1.00  0.00     0.064 A 
HETATM   13  C11 UNL     1       7.264  -9.568  -0.083  1.00  0.00     0.004 A 
HETATM   14  C12 UNL     1       6.136  -8.887   0.134  1.00  0.00     0.003 A 
HETATM   15  C13 UNL     1       6.107  -7.547   0.150  1.00  0.00     0.090 A 
HETATM   16  C15 UNL     1       4.794  -9.491   0.428  1.00  0.00     0.063 C 
HETATM   17  O3  UNL     1       4.979  -7.136   0.422  1.00  0.00    -0.329 OA
HETATM   18  C14 UNL     1       4.007  -8.177   0.335  1.00  0.00     0.144 C 
BRANCH  12  19
HETATM   19  C19 UNL     1       9.569  -9.513  -0.509  1.00  0.00     0.211 C 
HETATM   20  O4  UNL     1       9.628 -10.722  -0.527  1.00  0.00    -0.644 OA
HETATM   21  O5  UNL     1      10.744  -8.878  -0.720  1.00  0.00    -0.644 OA
ENDBRANCH  12  19
BRANCH  18  22
HETATM   22  C16 UNL     1       2.881  -8.054   1.333  1.00  0.00    -0.017 C 
HETATM   23  C17 UNL     1       1.604  -8.264   0.973  1.00  0.00    -0.007 C 
HETATM   24  C18 UNL     1       3.256  -7.689   2.748  1.00  0.00     0.029 C 
ENDBRANCH  18  22
ENDBRANCH   3  10
BRANCH   5  25
HETATM   25  C7  UNL     1       9.599  -2.725   0.403  1.00  0.00     0.211 C 
HETATM   26  O1  UNL     1       9.666  -1.516   0.431  1.00  0.00    -0.644 OA
HETATM   27  O2  UNL     1      10.772  -3.368   0.605  1.00  0.00    -0.644 OA
ENDBRANCH   5  25
BRANCH   8  28
HETATM   28  C22 UNL     1       2.951  -4.149  -1.540  1.00  0.00    -0.017 C 
HETATM   29  C23 UNL     1       1.533  -4.248  -1.034  1.00  0.00     0.029 C 
HETATM   30  C24 UNL     1       3.245  -4.201  -2.848  1.00  0.00    -0.007 C 
ENDBRANCH   8  28
TORSDOF 5
