REMARK  0 active torsions:
REMARK  status: ('A' for Active; 'I' for Inactive)
ROOT
HETATM    1  C1  UNL     1      -2.873   1.987  -0.556  1.00  0.00     0.090 C 
HETATM    2  C2  UNL     1      -3.111   0.552  -0.136  1.00  0.00     0.155 C 
HETATM    3  C3  UNL     1      -2.008  -0.415  -0.536  1.00  0.00     0.062 C 
HETATM    4  C4  UNL     1      -0.664   0.026   0.106  1.00  0.00     0.026 C 
HETATM    5  C5  UNL     1      -0.417   1.504  -0.201  1.00  0.00    -0.042 C 
HETATM    6  C6  UNL     1      -1.419   2.356  -0.477  1.00  0.00    -0.026 C 
HETATM    7  C7  UNL     1       0.974   2.075  -0.007  1.00  0.00     0.073 C 
HETATM    8  C8  UNL     1       2.045   1.032   0.044  1.00  0.00     0.077 A 
HETATM    9  C9  UNL     1       1.816  -0.269  -0.165  1.00  0.00    -0.005 A 
HETATM   10  C10 UNL     1       0.473  -0.842  -0.483  1.00  0.00     0.032 C 
HETATM   11  C11 UNL     1       3.009  -0.859  -0.015  1.00  0.00     0.001 A 
HETATM   12  C12 UNL     1       3.827   0.164   0.269  1.00  0.00     0.118 A 
HETATM   13  O1  UNL     1       3.232   1.241   0.293  1.00  0.00    -0.310 OA
HETATM   14  C13 UNL     1       3.377  -2.306  -0.120  1.00  0.00     0.033 C 
HETATM   15  C14 UNL     1      -0.701  -0.123   1.641  1.00  0.00     0.005 C 
HETATM   16  C15 UNL     1      -2.417  -1.877  -0.290  1.00  0.00     0.008 C 
HETATM   17  O2  UNL     1      -4.107   0.214   0.461  1.00  0.00    -0.296 OA
ENDROOT
TORSDOF 0
