REMARK  0 active torsions:
REMARK  status: ('A' for Active; 'I' for Inactive)
ROOT
HETATM    1  C1  UNL     1      -3.446   0.227  -1.146  1.00  0.00     0.204 C 
HETATM    2  C2  UNL     1      -3.738  -1.173  -0.672  1.00  0.00     0.000 C 
HETATM    3  C3  UNL     1      -2.850  -1.932  -0.006  1.00  0.00    -0.046 C 
HETATM    4  C4  UNL     1      -1.433  -1.454   0.276  1.00  0.00     0.023 C 
HETATM    5  C5  UNL     1      -1.333   0.091   0.324  1.00  0.00     0.040 C 
HETATM    6  C6  UNL     1      -1.965   0.542  -1.020  1.00  0.00     0.187 C 
HETATM    7  O1  UNL     1      -1.760   1.903  -1.312  1.00  0.00    -0.220 OA
HETATM    8  C7  UNL     1       0.152   0.569   0.508  1.00  0.00     0.068 C 
HETATM    9  C8  UNL     1       1.240  -0.458   0.097  1.00  0.00     0.090 C 
HETATM   10  C9  UNL     1       0.830  -1.384  -1.045  1.00  0.00     0.130 C 
HETATM   11  C10 UNL     1      -0.478  -2.131  -0.735  1.00  0.00     0.035 C 
HETATM   12  O2  UNL     1       0.710  -0.710  -2.270  1.00  0.00    -0.302 OA
HETATM   13  C11 UNL     1       1.023   0.608  -2.361  1.00  0.00     0.305 C 
HETATM   14  C12 UNL     1       2.292   1.014  -1.626  1.00  0.00     0.269 C 
HETATM   15  C13 UNL     1       2.534   0.269  -0.322  1.00  0.00     0.186 C 
HETATM   16  C14 UNL     1       3.035   1.205   0.753  1.00  0.00     0.021 C 
HETATM   17  C15 UNL     1       2.052   1.678   1.791  1.00  0.00     0.227 C 
HETATM   18  C16 UNL     1       0.783   0.850   1.876  1.00  0.00     0.251 C 
HETATM   19  O3  UNL     1      -0.034   1.505   2.813  1.00  0.00    -0.192 OA
HETATM   20  O4  UNL     1       1.044  -0.390   2.454  1.00  0.00    -0.330 OA
HETATM   21  C17 UNL     1       1.498  -1.215   1.414  1.00  0.00     0.150 C 
HETATM   22  O5  UNL     1       1.660   3.010   1.512  1.00  0.00    -0.213 OA
HETATM   23  C18 UNL     1       4.299   1.658   0.748  1.00  0.00    -0.004 C 
HETATM   24  O6  UNL     1       3.548  -0.697  -0.533  1.00  0.00    -0.218 OA
HETATM   25  O7  UNL     1       3.411   0.889  -2.487  1.00  0.00    -0.210 OA
HETATM   26  O8  UNL     1       0.386   1.392  -3.034  1.00  0.00    -0.261 OA
HETATM   27  C19 UNL     1      -2.235   0.607   1.471  1.00  0.00     0.003 C 
HETATM   28  C20 UNL     1      -3.197  -3.325   0.463  1.00  0.00     0.026 C 
HETATM   29  O9  UNL     1      -3.819   0.389  -2.503  1.00  0.00    -0.216 OA
ENDROOT
TORSDOF 0
