REMARK  0 active torsions:
REMARK  status: ('A' for Active; 'I' for Inactive)
ROOT
HETATM    1  C1  UNL     1      -1.099   0.154  -0.148  1.00  0.00     0.040 C 
HETATM    2  C2  UNL     1      -1.099  -1.369  -0.148  1.00  0.00     0.059 C 
HETATM    3  C3  UNL     1       0.022  -1.877  -1.046  1.00  0.00     0.212 C 
HETATM    4  C4  UNL     1       1.376  -1.541  -0.417  1.00  0.00     0.181 C 
HETATM    5  C5  UNL     1       1.239  -0.367   0.521  1.00  0.00     0.066 C 
HETATM    6  C6  UNL     1       0.337   0.661  -0.148  1.00  0.00     0.043 C 
HETATM    7  C7  UNL     1       0.411   1.976   0.618  1.00  0.00     0.180 C 
HETATM    8  C8  UNL     1       1.869   2.370   0.810  1.00  0.00     0.155 C 
HETATM    9  C9  UNL     1       2.544   1.372   1.730  1.00  0.00     0.040 C 
HETATM   10  C10 UNL     1       2.626   0.230   0.725  1.00  0.00     0.096 C 
HETATM   11  C11 UNL     1       3.031   0.904  -0.562  1.00  0.00     0.272 C 
HETATM   12  O1  UNL     1       2.520   2.192  -0.419  1.00  0.00    -0.302 OA
HETATM   13  O2  UNL     1       3.650   0.441  -1.491  1.00  0.00    -0.264 OA
HETATM   14  C12 UNL     1       3.917   1.840   2.193  1.00  0.00     0.003 C 
HETATM   15  O3  UNL     1      -0.200   1.822   1.870  1.00  0.00    -0.221 OA
HETATM   16  C13 UNL     1       0.649  -0.785   1.861  1.00  0.00     0.008 C 
HETATM   17  O4  UNL     1       2.406  -2.131  -0.640  1.00  0.00    -0.293 OA
HETATM   18  O5  UNL     1      -0.074  -1.262  -2.303  1.00  0.00    -0.215 OA
HETATM   19  C14 UNL     1      -2.414  -1.868  -0.660  1.00  0.00    -0.039 C 
HETATM   20  C15 UNL     1      -2.795  -1.483  -2.056  1.00  0.00     0.058 C 
HETATM   21  C16 UNL     1      -1.807  -0.422  -2.461  1.00  0.00     0.186 C 
HETATM   22  C17 UNL     1      -1.817   0.661  -1.392  1.00  0.00     0.183 C 
HETATM   23  O6  UNL     1      -3.141   0.985  -1.067  1.00  0.00    -0.221 OA
HETATM   24  O7  UNL     1      -0.525  -0.981  -2.561  1.00  0.00    -0.220 OA
HETATM   25  C18 UNL     1      -3.214  -2.626   0.097  1.00  0.00    -0.009 C 
HETATM   26  C19 UNL     1      -1.817   0.662   1.095  1.00  0.00     0.003 C 
ENDROOT
TORSDOF 0
