REMARK  1 active torsions:
REMARK  status: ('A' for Active; 'I' for Inactive)
REMARK    1  A    between atoms: C14_16  and  O3_17 
ROOT
HETATM    1  C1  UNL     1      -3.786  -0.714  -0.153  1.00  0.00     0.181 A 
HETATM    2  C2  UNL     1      -3.406  -1.996  -0.259  1.00  0.00     0.158 A 
HETATM    3  C3  UNL     1      -2.097  -2.279  -0.238  1.00  0.00     0.033 A 
HETATM    4  C4  UNL     1      -1.170  -1.312  -0.114  1.00  0.00     0.046 A 
HETATM    5  C5  UNL     1      -1.554  -0.027  -0.004  1.00  0.00     0.070 A 
HETATM    6  C6  UNL     1      -2.875   0.271  -0.026  1.00  0.00     0.161 A 
HETATM    7  O1  UNL     1      -3.365   1.541   0.073  1.00  0.00    -0.188 OA
HETATM    8  C7  UNL     1      -0.613   0.955   0.122  1.00  0.00     0.200 A 
HETATM    9  C8  UNL     1       0.713   0.626   0.138  1.00  0.00     0.064 A 
HETATM   10  C9  UNL     1       1.073  -0.670   0.026  1.00  0.00     0.044 A 
HETATM   11  C10 UNL     1       0.145  -1.656  -0.102  1.00  0.00     0.196 A 
HETATM   12  O2  UNL     1       0.473  -2.819  -0.205  1.00  0.00    -0.287 OA
HETATM   13  C11 UNL     1       2.372  -1.020   0.046  1.00  0.00    -0.001 A 
HETATM   14  C12 UNL     1       3.338  -0.103   0.196  1.00  0.00    -0.020 A 
HETATM   15  C13 UNL     1       2.960   1.176   0.311  1.00  0.00     0.020 A 
HETATM   16  C14 UNL     1       1.676   1.580   0.244  1.00  0.00     0.097 A 
HETATM   17  C16 UNL     1       4.792  -0.511   0.243  1.00  0.00     0.031 C 
HETATM   18  O4  UNL     1      -0.967   2.110   0.207  1.00  0.00    -0.286 OA
HETATM   19  O5  UNL     1      -4.338  -2.977  -0.386  1.00  0.00    -0.188 OA
HETATM   20  O6  UNL     1      -5.115  -0.427  -0.176  1.00  0.00    -0.186 OA
ENDROOT
BRANCH  16  21
HETATM   21  O3  UNL     1       1.433   2.921   0.434  1.00  0.00    -0.328 OA
HETATM   22  C15 UNL     1       1.421   3.677  -0.757  1.00  0.00     0.181 C 
ENDBRANCH  16  21
TORSDOF 1
