REMARK  0 active torsions:
REMARK  status: ('A' for Active; 'I' for Inactive)
ROOT
HETATM    1  C1  UNL     1      -4.878   2.222  -0.426  1.00  0.00    -0.000 A 
HETATM    2  C2  UNL     1      -4.885   0.890  -0.542  1.00  0.00     0.002 A 
HETATM    3  C3  UNL     1      -3.731   0.204  -0.505  1.00  0.00     0.017 A 
HETATM    4  C4  UNL     1      -2.513   0.781  -0.363  1.00  0.00     0.056 A 
HETATM    5  C5  UNL     1      -2.553   2.122  -0.223  1.00  0.00    -0.002 A 
HETATM    6  C6  UNL     1      -3.697   2.828  -0.262  1.00  0.00    -0.003 A 
HETATM    7  C7  UNL     1      -1.286   2.893  -0.054  1.00  0.00     0.056 A 
HETATM    8  C8  UNL     1      -0.101   1.983   0.073  1.00  0.00     0.003 A 
HETATM    9  C9  UNL     1      -0.195   0.639  -0.065  1.00  0.00     0.091 A 
HETATM   10  N1  UNL     1      -1.377   0.175  -0.314  1.00  0.00    -0.324 N 
HETATM   11  C10 UNL     1      -1.469  -1.286  -0.667  1.00  0.00     0.131 C 
HETATM   12  C11 UNL     1       0.976  -0.051   0.111  1.00  0.00     0.166 A 
HETATM   13  N2  UNL     1       2.169   0.564   0.339  1.00  0.00    -0.257 N 
HETATM   14  C12 UNL     1       2.183   1.908   0.436  1.00  0.00     0.084 A 
HETATM   15  C13 UNL     1       1.059   2.612   0.313  1.00  0.00     0.017 A 
HETATM   16  C14 UNL     1       3.356  -0.107   0.504  1.00  0.00     0.267 A 
HETATM   17  C15 UNL     1       3.273  -1.460   0.466  1.00  0.00     0.074 A 
HETATM   18  C16 UNL     1       2.067  -2.013   0.277  1.00  0.00     0.088 A 
HETATM   19  N3  UNL     1       1.022  -1.318   0.124  1.00  0.00    -0.226 NA
HETATM   20  C17 UNL     1       1.960  -3.354   0.244  1.00  0.00     0.019 A 
HETATM   21  C18 UNL     1       3.042  -4.132   0.397  1.00  0.00     0.002 A 
HETATM   22  C19 UNL     1       4.246  -3.571   0.587  1.00  0.00     0.000 A 
HETATM   23  C20 UNL     1       4.362  -2.235   0.624  1.00  0.00     0.006 A 
HETATM   24  O1  UNL     1       4.406   0.465   0.681  1.00  0.00    -0.267 OA
ENDROOT
TORSDOF 0
