REMARK  11 active torsions:
REMARK  status: ('A' for Active; 'I' for Inactive)
REMARK    1  A    between atoms: C3_3  and  O15_50 
REMARK    2  A    between atoms: C5_5  and  C32_45 
REMARK    3  A    between atoms: C6_6  and  O1_7 
REMARK    4  A    between atoms: O1_7  and  C7_8 
REMARK    5  A    between atoms: C9_11  and  O11_41 
REMARK    6  A    between atoms: C10_12  and  O9_37 
REMARK    7  A    between atoms: O9_37  and  C28_38 
REMARK    8  A    between atoms: O11_41  and  C30_42 
REMARK    9  A    between atoms: C32_45  and  O13_46 
REMARK   10  A    between atoms: O13_46  and  C33_47 
REMARK   11  A    between atoms: O15_50  and  C35_51 
ROOT
HETATM    1  C1  UNL     1      -1.936   0.153   2.883  1.00  0.00     0.183 C 
HETATM    2  C2  UNL     1      -2.480  -0.536   1.637  1.00  0.00     0.118 C 
HETATM    3  C3  UNL     1      -1.409  -1.526   1.169  1.00  0.00     0.161 C 
HETATM    4  C4  UNL     1      -0.416  -0.516   0.578  1.00  0.00     0.154 C 
HETATM    5  C5  UNL     1       0.418   0.108   1.774  1.00  0.00     0.116 C 
HETATM    6  C6  UNL     1      -0.552   0.808   2.788  1.00  0.00     0.188 C 
HETATM    7  C9  UNL     1       1.353   1.192   1.159  1.00  0.00     0.162 C 
HETATM    8  C10 UNL     1       2.276   0.706   0.041  1.00  0.00     0.182 C 
HETATM    9  C11 UNL     1       1.472   0.041  -1.083  1.00  0.00     0.184 C 
HETATM   10  C12 UNL     1       0.468  -1.027  -0.603  1.00  0.00     0.179 C 
HETATM   11  O3  UNL     1      -0.395  -1.308  -1.686  1.00  0.00    -0.221 OA
HETATM   12  C13 UNL     1       1.203  -2.366  -0.406  1.00  0.00     0.038 C 
HETATM   13  O4  UNL     1       0.837   1.066  -1.805  1.00  0.00    -0.299 OA
HETATM   14  C14 UNL     1       0.563   0.835  -3.116  1.00  0.00     0.272 C 
HETATM   15  C15 UNL     1      -0.094   2.045  -3.769  1.00  0.00     0.092 C 
HETATM   16  C16 UNL     1      -1.605   1.774  -3.992  1.00  0.00     0.050 C 
HETATM   17  C17 UNL     1      -1.886   0.430  -4.662  1.00  0.00     0.064 A 
HETATM   18  C18 UNL     1      -2.522  -0.661  -4.164  1.00  0.00     0.077 A 
HETATM   19  C19 UNL     1      -3.071  -0.769  -2.913  1.00  0.00     0.297 C 
HETATM   20  O5  UNL     1      -3.040   0.203  -1.952  1.00  0.00    -0.296 OA
HETATM   21  C20 UNL     1      -3.506  -0.086  -0.654  1.00  0.00     0.180 C 
HETATM   22  C21 UNL     1      -2.559   0.430   0.453  1.00  0.00     0.130 C 
HETATM   23  O6  UNL     1      -1.226   0.515   0.042  1.00  0.00    -0.356 OA
HETATM   24  C22 UNL     1      -3.068   1.842   0.787  1.00  0.00     0.033 C 
HETATM   25  O7  UNL     1      -3.619  -1.817  -2.638  1.00  0.00    -0.259 OA
HETATM   26  C23 UNL     1      -2.623  -1.734  -4.979  1.00  0.00     0.008 A 
HETATM   27  C24 UNL     1      -2.113  -1.703  -6.217  1.00  0.00     0.021 A 
HETATM   28  C25 UNL     1      -1.518  -0.569  -6.598  1.00  0.00     0.099 A 
HETATM   29  N1  UNL     1      -1.423   0.440  -5.845  1.00  0.00    -0.248 NA
HETATM   30  C26 UNL     1      -2.317   2.919  -4.736  1.00  0.00     0.007 C 
HETATM   31  C27 UNL     1       0.724   2.461  -5.004  1.00  0.00     0.011 C 
HETATM   32  O8  UNL     1       0.809  -0.206  -3.683  1.00  0.00    -0.264 OA
HETATM   33  O17 UNL     1      -2.583   0.198   3.906  1.00  0.00    -0.293 OA
ENDROOT
BRANCH   5  34
HETATM   34  C32 UNL     1       1.190  -0.977   2.584  1.00  0.00     0.160 C 
BRANCH  34  35
HETATM   35  O13 UNL     1       2.257  -0.449   3.330  1.00  0.00    -0.301 OA
BRANCH  35  36
HETATM   36  C33 UNL     1       3.116  -1.238   4.034  1.00  0.00     0.272 C 
HETATM   37  O14 UNL     1       3.995  -0.769   4.726  1.00  0.00    -0.264 OA
HETATM   38  C34 UNL     1       2.951  -2.738   3.863  1.00  0.00     0.106 C 
ENDBRANCH  35  36
ENDBRANCH  34  35
ENDBRANCH   5  34
BRANCH   6  39
HETATM   39  O1  UNL     1       0.035   0.916   4.069  1.00  0.00    -0.296 OA
BRANCH  39  40
HETATM   40  C7  UNL     1      -0.248   1.996   4.847  1.00  0.00     0.273 C 
HETATM   41  C8  UNL     1       0.428   1.851   6.195  1.00  0.00     0.106 C 
HETATM   42  O2  UNL     1      -0.930   2.937   4.509  1.00  0.00    -0.264 OA
ENDBRANCH  39  40
ENDBRANCH   6  39
BRANCH   7  43
HETATM   43  O11 UNL     1       2.082   1.850   2.156  1.00  0.00    -0.301 OA
BRANCH  43  44
HETATM   44  C30 UNL     1       2.402   3.162   1.993  1.00  0.00     0.272 C 
HETATM   45  C31 UNL     1       3.159   3.657   3.207  1.00  0.00     0.106 C 
HETATM   46  O12 UNL     1       2.112   3.833   1.029  1.00  0.00    -0.264 OA
ENDBRANCH  43  44
ENDBRANCH   7  43
BRANCH   3  47
HETATM   47  O15 UNL     1      -1.874  -2.439   0.219  1.00  0.00    -0.301 OA
BRANCH  47  48
HETATM   48  C35 UNL     1      -2.663  -3.456   0.657  1.00  0.00     0.272 C 
HETATM   49  C36 UNL     1      -3.121  -4.315  -0.503  1.00  0.00     0.106 C 
HETATM   50  O16 UNL     1      -2.959  -3.643   1.815  1.00  0.00    -0.264 OA
ENDBRANCH  47  48
ENDBRANCH   3  47
BRANCH   8  51
HETATM   51  O9  UNL     1       3.264  -0.169   0.508  1.00  0.00    -0.299 OA
BRANCH  51  52
HETATM   52  C28 UNL     1       4.494   0.327   0.827  1.00  0.00     0.273 C 
HETATM   53  C29 UNL     1       5.437  -0.801   1.194  1.00  0.00     0.106 C 
HETATM   54  O10 UNL     1       4.806   1.495   0.793  1.00  0.00    -0.264 OA
ENDBRANCH  51  52
ENDBRANCH   8  51
TORSDOF 11
