REMARK  3 active torsions:
REMARK  status: ('A' for Active; 'I' for Inactive)
REMARK    1  A    between atoms: N1_14  and  C13_15 
REMARK    2  A    between atoms: C17_19  and  O3_25 
REMARK    3  A    between atoms: C19_21  and  O2_22 
ROOT
HETATM    1  C1  UNL     1      -3.893  -0.266  -0.297  1.00  0.00     0.065 C 
HETATM    2  C2  UNL     1      -3.739  -1.768  -0.378  1.00  0.00     0.144 A 
HETATM    3  C3  UNL     1      -2.561  -2.196   0.324  1.00  0.00     0.149 A 
HETATM    4  C4  UNL     1      -1.826  -1.179   1.192  1.00  0.00     0.034 C 
HETATM    5  C5  UNL     1      -1.333  -0.154   0.143  1.00  0.00     0.063 C 
HETATM    6  C6  UNL     1      -2.554   0.405  -0.639  1.00  0.00     0.157 C 
HETATM    7  O1  UNL     1      -2.334   0.387  -2.025  1.00  0.00    -0.223 OA
HETATM    8  C7  UNL     1      -0.598   1.085   0.742  1.00  0.00     0.037 C 
HETATM    9  C8  UNL     1       0.620   0.889   1.655  1.00  0.00     0.177 C 
HETATM   10  C9  UNL     1       1.429  -0.337   1.234  1.00  0.00     0.159 C 
HETATM   11  C10 UNL     1       0.520  -1.486   0.756  1.00  0.00     0.062 C 
HETATM   12  C11 UNL     1      -0.565  -1.815   1.800  1.00  0.00     0.007 C 
HETATM   13  C12 UNL     1      -0.285  -1.102  -0.518  1.00  0.00     0.224 C 
HETATM   14  N1  UNL     1      -0.698  -2.345  -1.204  1.00  0.00     0.138 N 
HETATM   15  C15 UNL     1      -1.696  -3.136  -0.482  1.00  0.00     0.279 C 
HETATM   16  C16 UNL     1       2.521  -0.011   0.192  1.00  0.00     0.063 C 
HETATM   17  C17 UNL     1       2.365   1.273  -0.647  1.00  0.00     0.120 C 
HETATM   18  C18 UNL     1       1.431   2.307   0.002  1.00  0.00     0.057 C 
HETATM   19  C19 UNL     1       1.413   2.188   1.521  1.00  0.00     0.148 C 
HETATM   20  C21 UNL     1      -0.053   2.051  -0.337  1.00  0.00     0.008 C 
HETATM   21  O4  UNL     1       2.102  -0.799   2.383  1.00  0.00    -0.223 OA
HETATM   22  O5  UNL     1       0.206   0.828   2.994  1.00  0.00    -0.221 OA
HETATM   23  O6  UNL     1      -4.049  -2.523   0.767  1.00  0.00    -0.355 OA
ENDROOT
BRANCH  14  24
HETATM   24  C13 UNL     1      -1.056  -2.179  -2.608  1.00  0.00     0.250 C 
HETATM   25  C14 UNL     1      -0.810  -3.462  -3.422  1.00  0.00     0.037 C 
ENDBRANCH  14  24
BRANCH  19  26
HETATM   26  O2  UNL     1       2.701   2.125   2.061  1.00  0.00    -0.351 OA
HETATM   27  C20 UNL     1       2.786   2.592   3.389  1.00  0.00     0.174 C 
ENDBRANCH  19  26
BRANCH  17  28
HETATM   28  O3  UNL     1       3.662   1.779  -0.860  1.00  0.00    -0.354 OA
HETATM   29  C22 UNL     1       3.757   2.813  -1.817  1.00  0.00     0.174 C 
ENDBRANCH  17  28
TORSDOF 3
