REMARK  2 active torsions:
REMARK  status: ('A' for Active; 'I' for Inactive)
REMARK    1  A    between atoms: C3_3  and  C20_25 
REMARK    2  A    between atoms: C5_5  and  C18_22 
ROOT
HETATM    1  C1  UNL     1      -2.792  -0.014   2.121  1.00  0.00     0.034 C 
HETATM    2  C2  UNL     1      -2.631  -1.530   2.229  1.00  0.00     0.010 C 
HETATM    3  C3  UNL     1      -2.042  -2.155   0.947  1.00  0.00     0.059 C 
HETATM    4  C4  UNL     1      -0.740  -1.391   0.575  1.00  0.00     0.014 C 
HETATM    5  C5  UNL     1      -0.762   0.181   0.491  1.00  0.00     0.060 C 
HETATM    6  C6  UNL     1      -1.476   0.691   1.776  1.00  0.00     0.154 C 
HETATM    7  O1  UNL     1      -1.800   2.058   1.679  1.00  0.00    -0.223 OA
HETATM    8  C7  UNL     1       0.757   0.651   0.444  1.00  0.00     0.017 C 
HETATM    9  C8  UNL     1       1.670  -0.065  -0.597  1.00  0.00     0.112 C 
HETATM   10  C9  UNL     1       1.504  -1.581  -0.487  1.00  0.00     0.161 C 
HETATM   11  C10 UNL     1       0.051  -2.015  -0.595  1.00  0.00     0.034 C 
HETATM   12  O2  UNL     1       2.315  -2.271  -1.406  1.00  0.00    -0.223 OA
HETATM   13  C11 UNL     1       1.534   0.619  -1.967  1.00  0.00     0.165 C 
HETATM   14  C12 UNL     1       2.314   1.913  -1.740  1.00  0.00     0.056 C 
HETATM   15  C13 UNL     1       1.520   2.845  -0.819  1.00  0.00     0.007 C 
HETATM   16  C14 UNL     1       1.123   2.161   0.505  1.00  0.00     0.001 C 
HETATM   17  C15 UNL     1       3.504   1.367  -1.002  1.00  0.00     0.015 C 
HETATM   18  C16 UNL     1       3.154   0.245  -0.330  1.00  0.00     0.173 C 
HETATM   19  O3  UNL     1       3.889  -0.463   0.317  1.00  0.00    -0.291 OA
HETATM   20  C17 UNL     1       4.736   1.893  -0.998  1.00  0.00    -0.002 C 
HETATM   21  O4  UNL     1       2.185  -0.113  -2.977  1.00  0.00    -0.223 OA
HETATM   22  C19 UNL     1      -3.095  -2.252  -0.174  1.00  0.00     0.008 C 
ENDROOT
BRANCH   3  23
HETATM   23  C20 UNL     1      -1.696  -3.620   1.270  1.00  0.00     0.206 C 
HETATM   24  O6  UNL     1      -1.586  -4.046   2.396  1.00  0.00    -0.288 OA
ENDBRANCH   3  23
BRANCH   5  25
HETATM   25  C18 UNL     1      -1.601   0.644  -0.714  1.00  0.00     0.185 C 
HETATM   26  O5  UNL     1      -1.484   2.031  -0.933  1.00  0.00    -0.221 OA
ENDBRANCH   5  25
TORSDOF 2
