REMARK  3 active torsions:
REMARK  status: ('A' for Active; 'I' for Inactive)
REMARK    1  A    between atoms: C3_3  and  C20_24 
REMARK    2  A    between atoms: C20_24  and  O5_25 
REMARK    3  A    between atoms: O5_25  and  C21_26 
ROOT
HETATM    1  C1  UNL     1      -2.634   0.665   2.042  1.00  0.00     0.033 C 
HETATM    2  C2  UNL     1      -2.634  -0.859   1.906  1.00  0.00     0.005 C 
HETATM    3  C3  UNL     1      -2.036  -1.364   0.572  1.00  0.00     0.028 C 
HETATM    4  C4  UNL     1      -0.665  -0.651   0.354  1.00  0.00     0.007 C 
HETATM    5  C5  UNL     1      -0.615   0.920   0.420  1.00  0.00     0.029 C 
HETATM    6  C6  UNL     1      -1.254   1.282   1.792  1.00  0.00     0.152 C 
HETATM    7  O1  UNL     1      -1.402   2.672   1.958  1.00  0.00    -0.224 OA
HETATM    8  C7  UNL     1       0.893   1.400   0.335  1.00  0.00     0.014 C 
HETATM    9  C8  UNL     1       1.764   0.698  -0.749  1.00  0.00     0.112 C 
HETATM   10  C9  UNL     1       1.627  -0.811  -0.590  1.00  0.00     0.161 C 
HETATM   11  C10 UNL     1       0.182  -1.234  -0.799  1.00  0.00     0.034 C 
HETATM   12  O2  UNL     1       2.526  -1.501  -1.422  1.00  0.00    -0.223 OA
HETATM   13  C11 UNL     1       1.529   1.325  -2.132  1.00  0.00     0.165 C 
HETATM   14  C12 UNL     1       2.266   2.654  -1.979  1.00  0.00     0.056 C 
HETATM   15  C13 UNL     1       1.455   3.568  -1.056  1.00  0.00     0.007 C 
HETATM   16  C14 UNL     1       1.197   2.925   0.320  1.00  0.00     0.001 C 
HETATM   17  C15 UNL     1       3.515   2.170  -1.293  1.00  0.00     0.015 C 
HETATM   18  C16 UNL     1       3.249   1.047  -0.584  1.00  0.00     0.173 C 
HETATM   19  O3  UNL     1       4.035   0.351   0.012  1.00  0.00    -0.291 OA
HETATM   20  C17 UNL     1       4.725   2.738  -1.375  1.00  0.00    -0.002 C 
HETATM   21  O4  UNL     1       2.152   0.588  -3.155  1.00  0.00    -0.223 OA
HETATM   22  C18 UNL     1      -1.445   1.589  -0.696  1.00  0.00     0.003 C 
HETATM   23  C19 UNL     1      -3.037  -1.150  -0.585  1.00  0.00     0.003 C 
ENDROOT
BRANCH   3  24
HETATM   24  C20 UNL     1      -1.902  -2.908   0.692  1.00  0.00     0.152 C 
BRANCH  24  25
HETATM   25  O5  UNL     1      -0.931  -3.264   1.640  1.00  0.00    -0.302 OA
BRANCH  25  26
HETATM   26  C21 UNL     1      -0.671  -4.568   1.944  1.00  0.00     0.272 C 
HETATM   27  O6  UNL     1       0.112  -4.883   2.816  1.00  0.00    -0.264 OA
HETATM   28  C22 UNL     1      -1.393  -5.615   1.113  1.00  0.00     0.106 C 
ENDBRANCH  25  26
ENDBRANCH  24  25
ENDBRANCH   3  24
TORSDOF 3
