REMARK  0 active torsions:
REMARK  status: ('A' for Active; 'I' for Inactive)
ROOT
HETATM    1  C1  UNL     1      -2.456  -0.266   2.096  1.00  0.00     0.033 C 
HETATM    2  C2  UNL     1      -2.225  -1.774   2.188  1.00  0.00     0.003 C 
HETATM    3  C3  UNL     1      -1.681  -2.336   0.859  1.00  0.00     0.000 C 
HETATM    4  C4  UNL     1      -0.403  -1.524   0.481  1.00  0.00     0.007 C 
HETATM    5  C5  UNL     1      -0.433   0.045   0.470  1.00  0.00     0.056 C 
HETATM    6  C6  UNL     1      -1.173   0.490   1.760  1.00  0.00     0.154 C 
HETATM    7  O1  UNL     1      -1.536   1.851   1.734  1.00  0.00    -0.223 OA
HETATM    8  C7  UNL     1       1.141   0.440   0.571  1.00  0.00     0.019 C 
HETATM    9  C8  UNL     1       1.442   0.389  -0.897  1.00  0.00     0.133 C 
HETATM   10  C9  UNL     1       1.160  -1.000  -1.536  1.00  0.00     0.164 C 
HETATM   11  C10 UNL     1       0.305  -2.034  -0.786  1.00  0.00     0.034 C 
HETATM   12  O2  UNL     1       0.729  -0.860  -2.876  1.00  0.00    -0.223 OA
HETATM   13  C11 UNL     1       0.586   1.646  -1.204  1.00  0.00     0.231 C 
HETATM   14  C12 UNL     1       1.655   2.659  -1.509  1.00  0.00     0.080 C 
HETATM   15  C13 UNL     1       2.089   2.965  -0.007  1.00  0.00     0.009 C 
HETATM   16  C14 UNL     1       1.791   1.803   1.043  1.00  0.00     0.001 C 
HETATM   17  C15 UNL     1       2.876   1.923  -1.955  1.00  0.00     0.017 C 
HETATM   18  C16 UNL     1       2.867   0.695  -1.396  1.00  0.00     0.175 C 
HETATM   19  O3  UNL     1       3.807  -0.066  -1.385  1.00  0.00    -0.291 OA
HETATM   20  C17 UNL     1       3.894   2.433  -2.660  1.00  0.00    -0.002 C 
HETATM   21  O4  UNL     1      -0.181   2.439  -0.282  1.00  0.00    -0.195 OA
HETATM   22  O5  UNL     1      -0.554   1.250  -1.862  1.00  0.00    -0.332 OA
HETATM   23  C18 UNL     1      -1.215   0.403  -0.897  1.00  0.00     0.147 C 
HETATM   24  C19 UNL     1      -1.304  -3.821   1.105  1.00  0.00     0.000 C 
HETATM   25  C20 UNL     1      -2.822  -2.356  -0.185  1.00  0.00     0.000 C 
ENDROOT
TORSDOF 0
