REMARK  2 active torsions:
REMARK  status: ('A' for Active; 'I' for Inactive)
REMARK    1  A    between atoms: C5_5  and  C18_23 
REMARK    2  A    between atoms: C15_17  and  C17_20 
ROOT
HETATM    1  C1  UNL     1      -2.959  -0.291   2.195  1.00  0.00     0.033 C 
HETATM    2  C2  UNL     1      -2.760  -1.805   2.217  1.00  0.00     0.003 C 
HETATM    3  C3  UNL     1      -2.165  -2.354   0.902  1.00  0.00     0.000 C 
HETATM    4  C4  UNL     1      -0.900  -1.518   0.544  1.00  0.00     0.007 C 
HETATM    5  C5  UNL     1      -0.975   0.054   0.541  1.00  0.00     0.059 C 
HETATM    6  C6  UNL     1      -1.672   0.469   1.869  1.00  0.00     0.154 C 
HETATM    7  O1  UNL     1      -2.029   1.831   1.862  1.00  0.00    -0.223 OA
HETATM    8  C7  UNL     1       0.527   0.566   0.497  1.00  0.00     0.016 C 
HETATM    9  C8  UNL     1       1.462  -0.081  -0.568  1.00  0.00     0.108 C 
HETATM   10  C9  UNL     1       1.337  -1.604  -0.570  1.00  0.00     0.161 C 
HETATM   11  C10 UNL     1      -0.113  -2.054  -0.670  1.00  0.00     0.034 C 
HETATM   12  O2  UNL     1       2.118  -2.202  -1.579  1.00  0.00    -0.223 OA
HETATM   13  C11 UNL     1       1.290   0.655  -1.904  1.00  0.00     0.161 C 
HETATM   14  C12 UNL     1       2.096   1.934  -1.678  1.00  0.00     0.041 C 
HETATM   15  C13 UNL     1       1.274   2.805  -0.713  1.00  0.00     0.003 C 
HETATM   16  C14 UNL     1       0.857   2.084   0.588  1.00  0.00     0.001 C 
HETATM   17  C15 UNL     1       3.412   1.413  -1.079  1.00  0.00     0.093 C 
HETATM   18  C16 UNL     1       2.906   0.290  -0.194  1.00  0.00     0.157 C 
HETATM   19  O3  UNL     1       3.539  -0.180   0.723  1.00  0.00    -0.296 OA
HETATM   20  O5  UNL     1       1.829  -0.062  -2.985  1.00  0.00    -0.223 OA
HETATM   21  C19 UNL     1      -1.789  -3.834   1.201  1.00  0.00     0.000 C 
HETATM   22  C20 UNL     1      -3.230  -2.414  -0.213  1.00  0.00     0.000 C 
ENDROOT
BRANCH   5  23
HETATM   23  C18 UNL     1      -1.847   0.566  -0.620  1.00  0.00     0.185 C 
HETATM   24  O6  UNL     1      -1.766   1.967  -0.760  1.00  0.00    -0.221 OA
ENDBRANCH   5  23
BRANCH  17  25
HETATM   25  C17 UNL     1       4.308   2.428  -0.381  1.00  0.00     0.190 C 
HETATM   26  O4  UNL     1       4.603   3.482  -1.273  1.00  0.00    -0.220 OA
ENDBRANCH  17  25
TORSDOF 2
