REMARK  2 active torsions:
REMARK  status: ('A' for Active; 'I' for Inactive)
REMARK    1  A    between atoms: C13_15  and  O3_17 
REMARK    2  A    between atoms: O3_17  and  C15_18 
ROOT
HETATM    1  C1  UNL     1      -2.758  -0.630   2.422  1.00  0.00     0.033 C 
HETATM    2  C2  UNL     1      -2.664  -2.153   2.321  1.00  0.00     0.003 C 
HETATM    3  C3  UNL     1      -2.084  -2.648   0.977  1.00  0.00     0.000 C 
HETATM    4  C4  UNL     1      -0.776  -1.855   0.682  1.00  0.00     0.005 C 
HETATM    5  C5  UNL     1      -0.807  -0.286   0.737  1.00  0.00     0.029 C 
HETATM    6  C6  UNL     1      -1.423   0.058   2.124  1.00  0.00     0.152 C 
HETATM    7  O1  UNL     1      -1.637   1.440   2.285  1.00  0.00    -0.224 OA
HETATM    8  C7  UNL     1       0.671   0.273   0.605  1.00  0.00     0.017 C 
HETATM    9  C8  UNL     1       1.573  -0.408  -0.468  1.00  0.00     0.112 C 
HETATM   10  C9  UNL     1       1.475  -1.925  -0.341  1.00  0.00     0.161 C 
HETATM   11  C10 UNL     1       0.039  -2.390  -0.515  1.00  0.00     0.034 C 
HETATM   12  O2  UNL     1       2.368  -2.581  -1.206  1.00  0.00    -0.223 OA
HETATM   13  C11 UNL     1       1.344   0.245  -1.839  1.00  0.00     0.168 C 
HETATM   14  C12 UNL     1       2.069   1.578  -1.653  1.00  0.00     0.084 C 
HETATM   15  C13 UNL     1       1.245   2.496  -0.753  1.00  0.00     0.131 C 
HETATM   16  C14 UNL     1       0.887   1.815   0.582  1.00  0.00     0.031 C 
HETATM   17  C17 UNL     1       3.308   1.105  -0.941  1.00  0.00     0.017 C 
HETATM   18  C18 UNL     1       3.046  -0.035  -0.260  1.00  0.00     0.173 C 
HETATM   19  O5  UNL     1       3.834  -0.718   0.351  1.00  0.00    -0.291 OA
HETATM   20  C19 UNL     1       4.508   1.699  -0.974  1.00  0.00    -0.002 C 
HETATM   21  O6  UNL     1       1.985  -0.460  -2.874  1.00  0.00    -0.223 OA
HETATM   22  C20 UNL     1      -1.706   0.316  -0.362  1.00  0.00     0.003 C 
HETATM   23  C21 UNL     1      -1.787  -4.161   1.174  1.00  0.00     0.000 C 
HETATM   24  C22 UNL     1      -3.141  -2.575  -0.144  1.00  0.00     0.000 C 
ENDROOT
BRANCH  15  25
HETATM   25  O3  UNL     1       0.092   2.872  -1.454  1.00  0.00    -0.304 OA
BRANCH  25  26
HETATM   26  C15 UNL     1      -0.202   4.142  -1.853  1.00  0.00     0.272 C 
HETATM   27  O4  UNL     1      -1.151   4.380  -2.570  1.00  0.00    -0.264 OA
HETATM   28  C16 UNL     1       0.676   5.261  -1.325  1.00  0.00     0.106 C 
ENDBRANCH  25  26
ENDBRANCH  15  25
TORSDOF 2
