REMARK  0 active torsions:
REMARK  status: ('A' for Active; 'I' for Inactive)
ROOT
HETATM    1  C1  UNL     1      -2.724  -0.113   2.267  1.00  0.00     0.033 C 
HETATM    2  C2  UNL     1      -2.671  -1.637   2.132  1.00  0.00     0.003 C 
HETATM    3  C3  UNL     1      -2.079  -2.124   0.790  1.00  0.00     0.000 C 
HETATM    4  C4  UNL     1      -0.746  -1.359   0.535  1.00  0.00     0.005 C 
HETATM    5  C5  UNL     1      -0.753   0.210   0.601  1.00  0.00     0.029 C 
HETATM    6  C6  UNL     1      -1.371   0.549   1.988  1.00  0.00     0.152 C 
HETATM    7  O1  UNL     1      -1.553   1.934   2.163  1.00  0.00    -0.224 OA
HETATM    8  C7  UNL     1       0.732   0.753   0.478  1.00  0.00     0.017 C 
HETATM    9  C8  UNL     1       1.626   0.067  -0.596  1.00  0.00     0.112 C 
HETATM   10  C9  UNL     1       1.526  -1.446  -0.445  1.00  0.00     0.161 C 
HETATM   11  C10 UNL     1       0.090  -1.907  -0.642  1.00  0.00     0.034 C 
HETATM   12  O2  UNL     1       2.437  -2.114  -1.281  1.00  0.00    -0.223 OA
HETATM   13  C11 UNL     1       1.379   0.699  -1.975  1.00  0.00     0.168 C 
HETATM   14  C12 UNL     1       2.107   2.033  -1.821  1.00  0.00     0.086 C 
HETATM   15  C13 UNL     1       1.315   2.948  -0.897  1.00  0.00     0.159 C 
HETATM   16  C14 UNL     1       0.967   2.291   0.447  1.00  0.00     0.034 C 
HETATM   17  O3  UNL     1       0.154   3.369  -1.572  1.00  0.00    -0.223 OA
HETATM   18  C15 UNL     1       3.360   1.563  -1.133  1.00  0.00     0.017 C 
HETATM   19  C16 UNL     1       3.103   0.440  -0.422  1.00  0.00     0.173 C 
HETATM   20  O4  UNL     1       3.898  -0.242   0.182  1.00  0.00    -0.291 OA
HETATM   21  C17 UNL     1       4.564   2.143  -1.214  1.00  0.00    -0.002 C 
HETATM   22  O5  UNL     1       2.001  -0.027  -3.006  1.00  0.00    -0.223 OA
HETATM   23  C18 UNL     1      -1.643   0.836  -0.491  1.00  0.00     0.003 C 
HETATM   24  C19 UNL     1      -1.824  -3.648   0.967  1.00  0.00     0.000 C 
HETATM   25  C20 UNL     1      -3.111  -2.010  -0.350  1.00  0.00     0.000 C 
ENDROOT
TORSDOF 0
