REMARK  9 active torsions:
REMARK  status: ('A' for Active; 'I' for Inactive)
REMARK    1  A    between atoms: C3_3  and  C29_32 
REMARK    2  A    between atoms: C16_16  and  C24_25 
REMARK    3  A    between atoms: C29_32  and  O4_33 
REMARK    4  A    between atoms: O4_33  and  C30_34 
REMARK    5  A    between atoms: C31_36  and  C46_62 
REMARK    6  A    between atoms: C33_38  and  O11_51 
REMARK    7  A    between atoms: C34_39  and  O6_40 
REMARK    8  A    between atoms: O6_40  and  C35_41 
REMARK    9  A    between atoms: O11_51  and  C41_52 
ROOT
HETATM    1  C1  UNL     1       0.924  -0.865  -4.266  1.00  0.00     0.033 C 
HETATM    2  C2  UNL     1       1.141  -1.330  -2.399  1.00  0.00     0.154 C 
HETATM    3  C3  UNL     1      -0.494  -1.045  -1.340  1.00  0.00     0.056 C 
HETATM    4  C4  UNL     1      -1.760  -0.538  -2.412  1.00  0.00     0.005 C 
HETATM    5  C5  UNL     1      -1.416   0.513  -3.577  1.00  0.00     0.001 C 
HETATM    6  C6  UNL     1      -0.567  -0.148  -4.785  1.00  0.00     0.003 C 
HETATM    7  C7  UNL     1      -0.278   1.451  -3.224  1.00  0.00     0.005 C 
HETATM    8  C8  UNL     1       0.452   0.285  -2.558  1.00  0.00     0.004 C 
HETATM    9  C9  UNL     1      -0.456  -1.452  -3.102  1.00  0.00     0.000 C 
HETATM   10  C10 UNL     1      -1.967  -1.804  -3.150  1.00  0.00     0.000 C 
HETATM   11  C11 UNL     1       2.232   0.908  -2.647  1.00  0.00     0.015 C 
HETATM   12  C12 UNL     1       2.215   2.493  -2.535  1.00  0.00    -0.049 C 
HETATM   13  C13 UNL     1       1.100   3.272  -2.485  1.00  0.00    -0.035 C 
HETATM   14  C14 UNL     1      -0.348   2.828  -2.604  1.00  0.00     0.025 C 
HETATM   15  C15 UNL     1       3.555   3.220  -2.371  1.00  0.00     0.030 C 
HETATM   16  C16 UNL     1       4.459   2.746  -1.206  1.00  0.00     0.082 C 
HETATM   17  C17 UNL     1       4.681   1.233  -1.358  1.00  0.00     0.011 C 
HETATM   18  C18 UNL     1       3.358   0.469  -1.477  1.00  0.00     0.004 C 
HETATM   19  C19 UNL     1       5.872   3.387  -1.244  1.00  0.00     0.013 C 
HETATM   20  C20 UNL     1       5.999   4.478  -2.316  1.00  0.00     0.031 C 
HETATM   21  C21 UNL     1       5.658   3.927  -3.701  1.00  0.00     0.127 C 
HETATM   22  C22 UNL     1       4.326   3.194  -3.689  1.00  0.00     0.035 C 
HETATM   23  C23 UNL     1       5.559   4.990  -4.785  1.00  0.00     0.033 C 
HETATM   24  O1  UNL     1       6.667   3.007  -4.065  1.00  0.00    -0.226 OA
HETATM   25  C25 UNL     1       3.063   0.495  -3.881  1.00  0.00     0.004 C 
HETATM   26  C26 UNL     1       0.786   0.865  -0.964  1.00  0.00     0.000 C 
HETATM   27  C27 UNL     1      -2.719   1.278  -3.844  1.00  0.00     0.000 C 
HETATM   28  C28 UNL     1      -1.204   0.096  -0.379  1.00  0.00     0.005 C 
HETATM   29  O18 UNL     1       1.812  -2.588  -2.257  1.00  0.00    -0.223 OA
ENDROOT
BRANCH   3  30
HETATM   30  C29 UNL     1      -0.668  -2.331  -0.519  1.00  0.00     0.147 C 
BRANCH  30  31
HETATM   31  O4  UNL     1      -1.907  -2.172   0.074  1.00  0.00    -0.329 OA
BRANCH  31  32
HETATM   32  C30 UNL     1      -2.201  -2.993   1.166  1.00  0.00     0.266 C 
HETATM   33  O5  UNL     1      -3.443  -3.437   0.668  1.00  0.00    -0.326 OA
HETATM   34  C31 UNL     1      -4.624  -3.234   1.367  1.00  0.00     0.184 C 
HETATM   35  C32 UNL     1      -4.575  -2.591   2.740  1.00  0.00     0.211 C 
HETATM   36  C33 UNL     1      -3.313  -1.908   3.242  1.00  0.00     0.183 C 
HETATM   37  O16 UNL     1      -4.989  -3.548   3.692  1.00  0.00    -0.218 OA
HETATM   38  C34 UNL     1      -2.084  -2.083   2.373  1.00  0.00     0.204 C 
BRANCH  34  39
HETATM   39  C46 UNL     1      -5.672  -2.625   0.425  1.00  0.00     0.214 C 
HETATM   40  O17 UNL     1      -6.713  -3.559   0.207  1.00  0.00    -0.218 OA
ENDBRANCH  34  39
BRANCH  36  41
HETATM   41  O11 UNL     1      -3.640  -0.562   3.415  1.00  0.00    -0.326 OA
BRANCH  41  42
HETATM   42  C41 UNL     1      -2.668   0.334   3.911  1.00  0.00     0.270 C 
HETATM   43  O12 UNL     1      -3.185   0.823   5.130  1.00  0.00    -0.326 OA
HETATM   44  C42 UNL     1      -4.434   1.452   4.984  1.00  0.00     0.181 C 
HETATM   45  C43 UNL     1      -4.377   2.606   4.000  1.00  0.00     0.215 C 
HETATM   46  C44 UNL     1      -3.761   2.225   2.668  1.00  0.00     0.220 C 
HETATM   47  O15 UNL     1      -5.681   3.089   3.783  1.00  0.00    -0.218 OA
HETATM   48  C45 UNL     1      -2.472   1.469   2.926  1.00  0.00     0.241 C 
HETATM   49  O14 UNL     1      -4.652   1.420   1.926  1.00  0.00    -0.218 OA
HETATM   50  O13 UNL     1      -1.477   2.346   3.401  1.00  0.00    -0.215 OA
ENDBRANCH  41  42
ENDBRANCH  36  41
BRANCH  38  51
HETATM   51  O6  UNL     1      -1.076  -2.454   3.257  1.00  0.00    -0.324 OA
BRANCH  51  52
HETATM   52  C35 UNL     1       0.221  -2.740   2.822  1.00  0.00     0.270 C 
HETATM   53  O7  UNL     1       0.305  -4.149   2.798  1.00  0.00    -0.329 OA
HETATM   54  C36 UNL     1       0.095  -4.740   4.053  1.00  0.00     0.151 C 
HETATM   55  C37 UNL     1       1.088  -4.177   5.058  1.00  0.00     0.212 C 
HETATM   56  C40 UNL     1      -1.367  -4.748   4.539  1.00  0.00     0.035 C 
HETATM   57  C38 UNL     1       1.150  -2.658   5.113  1.00  0.00     0.220 C 
HETATM   58  O10 UNL     1       0.796  -4.688   6.332  1.00  0.00    -0.218 OA
HETATM   59  C39 UNL     1       1.261  -2.107   3.709  1.00  0.00     0.241 C 
HETATM   60  O9  UNL     1      -0.007  -2.123   5.715  1.00  0.00    -0.218 OA
HETATM   61  O8  UNL     1       2.542  -2.358   3.172  1.00  0.00    -0.215 OA
ENDBRANCH  51  52
ENDBRANCH  38  51
ENDBRANCH  31  32
ENDBRANCH  30  31
ENDBRANCH   3  30
BRANCH  16  62
HETATM   62  C24 UNL     1       3.843   3.059   0.160  1.00  0.00     0.184 C 
HETATM   63  O2  UNL     1       3.324   4.294   0.228  1.00  0.00    -0.647 OA
HETATM   64  O3  UNL     1       3.835   2.333   1.140  1.00  0.00    -0.647 OA
ENDBRANCH  16  62
TORSDOF 9
