REMARK  8 active torsions:
REMARK  status: ('A' for Active; 'I' for Inactive)
REMARK    1  A    between atoms: C2_2  and  O4_33 
REMARK    2  A    between atoms: C3_3  and  C28_30 
REMARK    3  A    between atoms: C16_16  and  C24_24 
REMARK    4  A    between atoms: O4_33  and  C30_34 
REMARK    5  A    between atoms: C33_38  and  O7_41 
REMARK    6  A    between atoms: O7_41  and  C35_42 
REMARK    7  A    between atoms: C36_44  and  C40_51 
REMARK    8  A    between atoms: C40_51  and  O12_52 
ROOT
HETATM    1  C1  UNL     1      -0.478   0.377  -1.681  1.00  0.00     0.030 C 
HETATM    2  C2  UNL     1      -0.293  -0.064   0.215  1.00  0.00     0.120 C 
HETATM    3  C3  UNL     1      -1.933   0.397   1.270  1.00  0.00     0.056 C 
HETATM    4  C4  UNL     1      -3.224   0.960   0.143  1.00  0.00     0.005 C 
HETATM    5  C5  UNL     1      -2.829   1.901  -1.085  1.00  0.00     0.001 C 
HETATM    6  C6  UNL     1      -1.921   1.187  -2.242  1.00  0.00     0.003 C 
HETATM    7  C7  UNL     1      -1.632   2.745  -0.679  1.00  0.00     0.005 C 
HETATM    8  C8  UNL     1      -0.874   1.621   0.015  1.00  0.00     0.004 C 
HETATM    9  C9  UNL     1      -1.907  -0.018  -0.487  1.00  0.00     0.000 C 
HETATM   10  C10 UNL     1      -3.428  -0.295  -0.592  1.00  0.00     0.000 C 
HETATM   11  C11 UNL     1       0.948   2.077  -0.185  1.00  0.00     0.015 C 
HETATM   12  C12 UNL     1       0.934   3.636  -0.056  1.00  0.00    -0.049 C 
HETATM   13  C13 UNL     1      -0.146   4.463  -0.000  1.00  0.00    -0.035 C 
HETATM   14  C14 UNL     1      -1.619   4.145  -0.160  1.00  0.00     0.025 C 
HETATM   15  C15 UNL     1       2.291   4.291   0.061  1.00  0.00     0.032 C 
HETATM   16  C16 UNL     1       3.202   3.758   1.193  1.00  0.00     0.082 C 
HETATM   17  C17 UNL     1       3.487   2.257   1.010  1.00  0.00     0.011 C 
HETATM   18  C18 UNL     1       2.151   1.502   0.934  1.00  0.00     0.004 C 
HETATM   19  C19 UNL     1       4.612   4.400   1.158  1.00  0.00     0.015 C 
HETATM   20  C20 UNL     1       4.739   5.468   0.066  1.00  0.00     0.023 C 
HETATM   21  C21 UNL     1       4.343   4.882  -1.265  1.00  0.00    -0.044 C 
HETATM   22  C22 UNL     1       2.997   4.244  -1.288  1.00  0.00     0.026 C 
HETATM   23  C23 UNL     1       5.145   4.746  -2.333  1.00  0.00    -0.009 C 
HETATM   24  C25 UNL     1       1.766   1.629  -1.431  1.00  0.00     0.004 C 
HETATM   25  C26 UNL     1      -0.416   2.021   1.604  1.00  0.00     0.000 C 
HETATM   26  C27 UNL     1      -4.175   2.522  -1.536  1.00  0.00     0.000 C 
HETATM   27  C29 UNL     1      -2.351  -0.767   2.213  1.00  0.00     0.005 C 
ENDROOT
BRANCH   2  28
HETATM   28  O4  UNL     1       0.286  -1.370   0.378  1.00  0.00    -0.332 OA
BRANCH  28  29
HETATM   29  C30 UNL     1       0.821  -1.627   1.684  1.00  0.00     0.270 C 
HETATM   30  O5  UNL     1       2.223  -1.819   1.585  1.00  0.00    -0.326 OA
HETATM   31  C31 UNL     1       2.538  -2.938   0.818  1.00  0.00     0.180 C 
HETATM   32  C32 UNL     1       1.877  -4.194   1.356  1.00  0.00     0.211 C 
HETATM   33  C33 UNL     1       0.367  -4.103   1.633  1.00  0.00     0.186 C 
HETATM   34  O14 UNL     1       2.149  -5.208   0.430  1.00  0.00    -0.218 OA
HETATM   35  C34 UNL     1       0.212  -2.804   2.404  1.00  0.00     0.238 C 
HETATM   36  O6  UNL     1       0.740  -2.879   3.719  1.00  0.00    -0.215 OA
BRANCH  33  37
HETATM   37  O7  UNL     1      -0.329  -4.101   0.411  1.00  0.00    -0.326 OA
BRANCH  37  38
HETATM   38  C35 UNL     1      -1.744  -4.262   0.293  1.00  0.00     0.270 C 
HETATM   39  O8  UNL     1      -1.981  -5.418  -0.462  1.00  0.00    -0.319 OA
HETATM   40  C36 UNL     1      -1.479  -5.310  -1.789  1.00  0.00     0.236 C 
HETATM   41  C37 UNL     1      -2.127  -4.207  -2.641  1.00  0.00     0.222 C 
HETATM   42  C38 UNL     1      -1.913  -2.911  -1.948  1.00  0.00     0.221 C 
HETATM   43  O11 UNL     1      -3.521  -4.206  -2.852  1.00  0.00    -0.217 OA
HETATM   44  C39 UNL     1      -2.392  -3.174  -0.524  1.00  0.00     0.241 C 
HETATM   45  O10 UNL     1      -0.545  -2.655  -2.062  1.00  0.00    -0.218 OA
HETATM   46  O9  UNL     1      -3.800  -3.202  -0.439  1.00  0.00    -0.215 OA
BRANCH  40  47
HETATM   47  C40 UNL     1       0.110  -5.272  -1.845  1.00  0.00     0.302 C 
HETATM   48  O13 UNL     1       0.885  -4.355  -1.912  1.00  0.00    -0.261 OA
BRANCH  47  49
HETATM   49  O12 UNL     1       0.712  -6.474  -1.720  1.00  0.00    -0.297 OA
HETATM   50  C41 UNL     1       0.043  -7.524  -2.331  1.00  0.00     0.185 C 
ENDBRANCH  47  49
ENDBRANCH  40  47
ENDBRANCH  37  38
ENDBRANCH  33  37
ENDBRANCH  28  29
ENDBRANCH   2  28
BRANCH   3  51
HETATM   51  C28 UNL     1      -2.614   1.603   2.140  1.00  0.00     0.184 C 
HETATM   52  O3  UNL     1      -2.436   1.425   3.526  1.00  0.00    -0.221 OA
ENDBRANCH   3  51
BRANCH  16  53
HETATM   53  C24 UNL     1       2.572   4.034   2.566  1.00  0.00     0.184 C 
HETATM   54  O1  UNL     1       1.955   5.242   2.636  1.00  0.00    -0.647 OA
HETATM   55  O2  UNL     1       2.607   3.320   3.534  1.00  0.00    -0.647 OA
ENDBRANCH  16  53
TORSDOF 8
