REMARK  0 active torsions:
REMARK  status: ('A' for Active; 'I' for Inactive)
ROOT
HETATM    1  C1  UNL     1       0.445   0.385  -0.517  1.00  0.00    -0.013 C 
HETATM    2  C2  UNL     1       0.459  -0.933  -0.276  1.00  0.00     0.009 C 
HETATM    3  C3  UNL     1       1.585  -1.602   0.065  1.00  0.00     0.201 C 
HETATM    4  C4  UNL     1       2.893  -0.831   0.166  1.00  0.00     0.243 C 
HETATM    5  C5  UNL     1       2.900   0.441  -0.664  1.00  0.00     0.194 C 
HETATM    6  C6  UNL     1       1.648   1.281  -0.406  1.00  0.00     0.054 C 
HETATM    7  C7  UNL     1       1.593   2.519  -1.313  1.00  0.00     0.007 C 
HETATM    8  O1  UNL     1       2.935   0.057  -2.019  1.00  0.00    -0.220 OA
HETATM    9  O2  UNL     1       3.127  -0.526   1.529  1.00  0.00    -0.212 OA
HETATM   10  O3  UNL     1       1.574  -2.779   0.342  1.00  0.00    -0.289 OA
HETATM   11  C8  UNL     1      -0.901  -1.554  -0.386  1.00  0.00     0.027 C 
HETATM   12  C9  UNL     1      -1.836  -0.310  -0.496  1.00  0.00     0.039 C 
HETATM   13  C10 UNL     1      -0.943   0.891  -0.805  1.00  0.00     0.171 C 
HETATM   14  O4  UNL     1      -1.073   1.219  -2.175  1.00  0.00    -0.219 OA
HETATM   15  C11 UNL     1      -2.277  -0.559   0.977  1.00  0.00     0.003 C 
HETATM   16  C12 UNL     1      -1.591  -1.947   0.937  1.00  0.00     0.005 C 
HETATM   17  C13 UNL     1      -3.802  -0.650   1.128  1.00  0.00     0.000 C 
HETATM   18  C14 UNL     1      -1.675   0.359   2.048  1.00  0.00     0.000 C 
ENDROOT
TORSDOF 0
