REMARK  0 active torsions:
REMARK  status: ('A' for Active; 'I' for Inactive)
ROOT
HETATM    1  C1  UNL     1       0.677   0.561  -0.541  1.00  0.00     0.155 C 
HETATM    2  C2  UNL     1       0.656  -0.951  -0.304  1.00  0.00     0.063 C 
HETATM    3  C3  UNL     1      -0.386  -1.197   0.798  1.00  0.00     0.008 A 
HETATM    4  C4  UNL     1      -1.344   0.025   0.781  1.00  0.00     0.030 A 
HETATM    5  C5  UNL     1      -0.814   0.866  -0.387  1.00  0.00     0.152 C 
HETATM    6  O1  UNL     1      -1.548   0.423  -1.498  1.00  0.00    -0.300 OA
HETATM    7  C6  UNL     1      -1.267  -0.816  -1.976  1.00  0.00     0.300 C 
HETATM    8  C7  UNL     1       0.149  -1.296  -1.711  1.00  0.00     0.206 C 
HETATM    9  C8  UNL     1       1.022  -0.507  -2.693  1.00  0.00     0.043 C 
HETATM   10  C9  UNL     1       1.330   0.783  -1.911  1.00  0.00     0.034 C 
HETATM   11  C10 UNL     1       0.929   2.081  -2.621  1.00  0.00     0.003 C 
HETATM   12  O2  UNL     1       0.184  -2.677  -1.980  1.00  0.00    -0.216 OA
HETATM   13  O3  UNL     1      -1.981  -1.471  -2.704  1.00  0.00    -0.262 OA
HETATM   14  C11 UNL     1      -1.053   0.303   2.281  1.00  0.00     0.002 A 
HETATM   15  C12 UNL     1       0.002  -0.833   2.253  1.00  0.00     0.000 A 
HETATM   16  C13 UNL     1      -2.252  -0.082   3.167  1.00  0.00     0.000 C 
HETATM   17  C14 UNL     1      -0.520   1.691   2.666  1.00  0.00     0.000 C 
HETATM   18  C15 UNL     1       2.006  -1.612   0.006  1.00  0.00     0.005 C 
HETATM   19  O4  UNL     1       1.422   1.237   0.430  1.00  0.00    -0.223 OA
ENDROOT
TORSDOF 0
