REMARK  1 active torsions:
REMARK  status: ('A' for Active; 'I' for Inactive)
REMARK    1  A    between atoms: C10_10  and  C11_11 
ROOT
HETATM    1  C1  UNL     1      -3.590   1.516  -0.873  1.00  0.00     0.027 A 
HETATM    2  C2  UNL     1      -3.623   0.175  -0.817  1.00  0.00     0.131 A 
HETATM    3  C3  UNL     1      -2.446  -0.471  -0.790  1.00  0.00     0.023 A 
HETATM    4  C4  UNL     1      -1.263   0.169  -0.824  1.00  0.00    -0.020 A 
HETATM    5  C5  UNL     1      -1.248   1.515  -0.878  1.00  0.00    -0.026 A 
HETATM    6  C6  UNL     1      -2.422   2.172  -0.902  1.00  0.00    -0.002 A 
HETATM    7  C7  UNL     1       0.035   2.314  -0.934  1.00  0.00     0.026 C 
HETATM    8  C8  UNL     1       1.321   1.519  -0.649  1.00  0.00     0.005 C 
HETATM    9  C9  UNL     1       1.227   0.145  -1.336  1.00  0.00     0.008 C 
HETATM   10  C10 UNL     1       0.016  -0.642  -0.790  1.00  0.00     0.044 C 
HETATM   11  C17 UNL     1       2.528  -0.671  -1.249  1.00  0.00     0.001 C 
HETATM   12  C18 UNL     1       2.547   2.343  -1.078  1.00  0.00     0.000 C 
HETATM   13  O2  UNL     1      -4.799  -0.508  -0.792  1.00  0.00    -0.190 OA
ENDROOT
BRANCH  10  14
HETATM   14  C11 UNL     1       0.243  -1.225   0.599  1.00  0.00    -0.018 A 
HETATM   15  C12 UNL     1       0.715  -2.476   0.750  1.00  0.00    -0.002 A 
HETATM   16  C13 UNL     1       0.945  -2.994   1.966  1.00  0.00     0.027 A 
HETATM   17  C14 UNL     1       0.709  -2.287   3.083  1.00  0.00     0.131 A 
HETATM   18  C15 UNL     1       0.228  -1.042   2.934  1.00  0.00     0.027 A 
HETATM   19  O1  UNL     1       0.948  -2.803   4.319  1.00  0.00    -0.190 OA
HETATM   20  C16 UNL     1      -0.004  -0.522   1.719  1.00  0.00    -0.002 A 
ENDBRANCH  10  14
TORSDOF 1
