REMARK  1 active torsions:
REMARK  status: ('A' for Active; 'I' for Inactive)
REMARK    1  A    between atoms: C2_2  and  C12_14 
ROOT
HETATM    1  C1  UNL     1      -0.667   1.219  -1.296  1.00  0.00     0.008 C 
HETATM    2  C2  UNL     1      -0.758  -0.228  -0.763  1.00  0.00     0.044 C 
HETATM    3  C3  UNL     1       0.577  -0.944  -0.812  1.00  0.00    -0.020 A 
HETATM    4  C4  UNL     1       1.743  -0.274  -0.869  1.00  0.00    -0.024 A 
HETATM    5  C5  UNL     1       1.811   1.237  -0.912  1.00  0.00     0.026 C 
HETATM    6  C6  UNL     1       0.491   1.966  -0.610  1.00  0.00     0.005 C 
HETATM    7  C7  UNL     1       0.606   3.442  -1.028  1.00  0.00     0.000 C 
HETATM    8  C8  UNL     1       2.889  -0.977  -0.907  1.00  0.00     0.025 A 
HETATM    9  C9  UNL     1       2.914  -2.318  -0.890  1.00  0.00     0.156 A 
HETATM   10  C10 UNL     1       1.750  -2.988  -0.831  1.00  0.00     0.156 A 
HETATM   11  C11 UNL     1       0.605  -2.289  -0.789  1.00  0.00     0.025 A 
HETATM   12  O1  UNL     1       1.759  -4.348  -0.817  1.00  0.00    -0.188 OA
HETATM   13  O2  UNL     1       4.090  -2.998  -0.935  1.00  0.00    -0.188 OA
HETATM   14  C18 UNL     1      -2.015   1.952  -1.192  1.00  0.00     0.001 C 
ENDROOT
BRANCH   2  15
HETATM   15  C12 UNL     1      -1.369  -0.329   0.628  1.00  0.00    -0.018 A 
HETATM   16  C13 UNL     1      -2.689  -0.535   0.785  1.00  0.00    -0.002 A 
HETATM   17  C14 UNL     1      -3.247  -0.604   2.003  1.00  0.00     0.027 A 
HETATM   18  C15 UNL     1      -2.508  -0.472   3.117  1.00  0.00     0.131 A 
HETATM   19  C16 UNL     1      -1.189  -0.275   2.963  1.00  0.00     0.027 A 
HETATM   20  O3  UNL     1      -3.067  -0.534   4.356  1.00  0.00    -0.190 OA
HETATM   21  C17 UNL     1      -0.629  -0.208   1.745  1.00  0.00    -0.002 A 
ENDBRANCH   2  15
TORSDOF 1
