REMARK  4 active torsions:
REMARK  status: ('A' for Active; 'I' for Inactive)
REMARK    1  A    between atoms: C1_1  and  C8_9 
REMARK    2  A    between atoms: C4_4  and  O1_7 
REMARK    3  A    between atoms: C8_9  and  O2_10 
REMARK    4  A    between atoms: O2_10  and  C9_11 
ROOT
HETATM    1  C9  UNL     1      -0.342   0.441  -1.437  1.00  0.00     0.155 C 
HETATM    2  C10 UNL     1      -1.493  -0.552  -1.264  1.00  0.00     0.117 C 
HETATM    3  C11 UNL     1      -1.180  -1.901  -0.608  1.00  0.00     0.137 C 
HETATM    4  C12 UNL     1       0.252  -2.401  -0.818  1.00  0.00     0.035 C 
HETATM    5  C13 UNL     1       0.760  -2.450  -2.260  1.00  0.00     0.024 C 
HETATM    6  C14 UNL     1       1.056  -1.130  -2.932  1.00  0.00    -0.046 C 
HETATM    7  C15 UNL     1       0.610   0.080  -2.552  1.00  0.00    -0.004 C 
HETATM    8  C16 UNL     1       1.923  -1.261  -4.167  1.00  0.00     0.026 C 
HETATM    9  C17 UNL     1      -2.246  -2.875  -1.159  1.00  0.00     0.036 C 
HETATM   10  C18 UNL     1      -2.662  -2.334  -2.541  1.00  0.00     0.067 C 
HETATM   11  C19 UNL     1      -2.213  -0.891  -2.556  1.00  0.00     0.155 C 
HETATM   12  O3  UNL     1      -2.405  -0.121  -3.468  1.00  0.00    -0.296 OA
HETATM   13  C20 UNL     1      -3.487  -3.017  -0.257  1.00  0.00     0.003 C 
HETATM   14  O4  UNL     1      -1.332  -1.757   0.783  1.00  0.00    -0.225 OA
ENDROOT
BRANCH   1  15
HETATM   15  O2  UNL     1       0.283   0.655  -0.194  1.00  0.00    -0.296 OA
BRANCH  15  16
HETATM   16  C8  UNL     1       1.070   1.764  -0.029  1.00  0.00     0.296 C 
HETATM   17  O5  UNL     1       1.462   2.364  -1.007  1.00  0.00    -0.259 OA
BRANCH  16  18
HETATM   18  C1  UNL     1       1.344   2.277   1.207  1.00  0.00     0.063 A 
HETATM   19  C2  UNL     1       0.864   1.690   2.318  1.00  0.00     0.007 A 
HETATM   20  C3  UNL     1       1.112   2.207   3.533  1.00  0.00     0.024 A 
HETATM   21  C4  UNL     1       1.865   3.312   3.705  1.00  0.00     0.094 A 
HETATM   22  C5  UNL     1       2.333   3.883   2.579  1.00  0.00     0.024 A 
HETATM   23  C6  UNL     1       2.090   3.386   1.357  1.00  0.00     0.007 A 
BRANCH  21  24
HETATM   24  O1  UNL     1       2.134   3.911   4.913  1.00  0.00    -0.328 OA
HETATM   25  C7  UNL     1       1.380   3.526   6.039  1.00  0.00     0.181 C 
ENDBRANCH  21  24
ENDBRANCH  16  18
ENDBRANCH  15  16
ENDBRANCH   1  15
TORSDOF 4
