REMARK  6 active torsions:
REMARK  status: ('A' for Active; 'I' for Inactive)
REMARK    1  A    between atoms: C4_4  and  C5_5 
REMARK    2  A    between atoms: C6_6  and  C7_7 
REMARK    3  A    between atoms: C7_7  and  C8_8 
REMARK    4  A    between atoms: C8_8  and  C9_9 
REMARK    5  A    between atoms: C9_9  and  O1_10 
REMARK    6  A    between atoms: O1_10  and  C10_11 
ROOT
HETATM    1  O1  UNL     1      -1.447   1.593   0.387  1.00  0.00    -0.331 OA
ENDROOT
BRANCH   1   2
HETATM    2  C9  UNL     1      -0.222   0.904   0.382  1.00  0.00     0.152 C 
BRANCH   2   3
HETATM    3  C8  UNL     1      -0.375  -0.369  -0.456  1.00  0.00     0.067 C 
BRANCH   3   4
HETATM    4  C7  UNL     1       0.866  -1.276  -0.496  1.00  0.00     0.148 C 
HETATM    5  C19 UNL     1       2.080  -0.574  -1.109  1.00  0.00     0.038 C 
HETATM    6  O4  UNL     1       1.191  -1.629   0.834  1.00  0.00    -0.221 OA
BRANCH   4   7
HETATM    7  C6  UNL     1       0.566  -2.535  -1.293  1.00  0.00     0.004 C 
HETATM    8  C5  UNL     1       1.352  -3.625  -1.280  1.00  0.00    -0.003 C 
BRANCH   8   9
HETATM    9  C4  UNL     1       1.078  -4.734  -1.989  1.00  0.00    -0.009 C 
HETATM   10  C2  UNL     1       1.805  -5.867  -2.026  1.00  0.00    -0.044 C 
HETATM   11  C1  UNL     1       1.345  -7.056  -2.841  1.00  0.00     0.026 C 
HETATM   12  C3  UNL     1       3.096  -6.111  -1.279  1.00  0.00     0.026 C 
ENDBRANCH   8   9
ENDBRANCH   4   7
ENDBRANCH   3   4
ENDBRANCH   2   3
ENDBRANCH   1   2
BRANCH   1  13
HETATM   13  C10 UNL     1      -1.518   2.813   1.016  1.00  0.00     0.096 A 
HETATM   14  C11 UNL     1      -2.640   3.546   0.883  1.00  0.00     0.049 A 
HETATM   15  C12 UNL     1      -2.831   4.759   1.434  1.00  0.00     0.105 A 
HETATM   16  C13 UNL     1      -1.825   5.277   2.165  1.00  0.00     0.023 A 
HETATM   17  O2  UNL     1      -4.014   5.419   1.236  1.00  0.00    -0.273 OA
HETATM   18  C14 UNL     1      -0.686   4.580   2.317  1.00  0.00     0.004 A 
HETATM   19  C16 UNL     1      -1.979   6.488   2.727  1.00  0.00     0.007 A 
HETATM   20  C15 UNL     1      -0.537   3.374   1.749  1.00  0.00     0.024 A 
HETATM   21  C17 UNL     1      -3.117   7.177   2.564  1.00  0.00     0.069 A 
HETATM   22  C18 UNL     1      -4.122   6.645   1.825  1.00  0.00     0.300 A 
HETATM   23  O3  UNL     1      -5.143   7.290   1.692  1.00  0.00    -0.259 OA
ENDBRANCH   1  13
TORSDOF 6
