REMARK  0 active torsions:
REMARK  status: ('A' for Active; 'I' for Inactive)
ROOT
HETATM    1  C1  UNL     1      -1.274  -1.233  -0.546  1.00  0.00     0.000 C 
HETATM    2  C2  UNL     1      -0.463  -0.952   1.297  1.00  0.00     0.000 A 
HETATM    3  C3  UNL     1      -1.289  -1.479   2.490  1.00  0.00     0.000 A 
HETATM    4  C4  UNL     1      -1.885  -1.769   1.166  1.00  0.00     0.004 A 
HETATM    5  C5  UNL     1      -1.946  -0.031   0.453  1.00  0.00     0.015 C 
HETATM    6  C6  UNL     1      -2.544  -0.447  -0.834  1.00  0.00     0.004 C 
HETATM    7  C7  UNL     1      -0.401   0.591  -0.192  1.00  0.00    -0.050 C 
HETATM    8  C8  UNL     1       0.708  -0.230  -0.456  1.00  0.00    -0.025 C 
HETATM    9  C9  UNL     1       0.780  -1.938  -0.283  1.00  0.00     0.024 C 
HETATM   10  C10 UNL     1      -0.484  -2.816   0.516  1.00  0.00     0.005 C 
HETATM   11  C11 UNL     1       2.016   0.337  -0.973  1.00  0.00     0.135 C 
HETATM   12  C12 UNL     1       2.023   1.825  -1.362  1.00  0.00     0.060 C 
HETATM   13  C13 UNL     1       0.599   2.360  -1.616  1.00  0.00     0.009 C 
HETATM   14  C14 UNL     1      -0.371   2.068  -0.469  1.00  0.00     0.022 C 
HETATM   15  C15 UNL     1       2.781   1.807  -2.696  1.00  0.00     0.184 C 
HETATM   16  C16 UNL     1       2.479   0.414  -3.205  1.00  0.00     0.175 C 
HETATM   17  O1  UNL     1       2.498  -0.407  -2.071  1.00  0.00    -0.350 OA
HETATM   18  O2  UNL     1       4.171   1.931  -2.511  1.00  0.00    -0.221 OA
HETATM   19  C17 UNL     1       2.719   2.704  -0.305  1.00  0.00     0.005 C 
HETATM   20  C18 UNL     1      -2.894   1.019   1.051  1.00  0.00     0.004 C 
HETATM   21  C19 UNL     1      -0.925  -2.747   3.291  1.00  0.00     0.000 C 
HETATM   22  C20 UNL     1      -1.949  -0.476   3.448  1.00  0.00     0.000 C 
ENDROOT
TORSDOF 0
