REMARK  2 active torsions:
REMARK  status: ('A' for Active; 'I' for Inactive)
REMARK    1  A    between atoms: C6_6  and  C17_17 
REMARK    2  A    between atoms: C17_17  and  C18_18 
ROOT
HETATM    1  C1  UNL     1      -2.644   0.391   0.298  1.00  0.00     0.000 C 
HETATM    2  C2  UNL     1      -1.241  -0.242   0.439  1.00  0.00     0.003 C 
HETATM    3  C3  UNL     1      -0.329   0.263  -0.727  1.00  0.00     0.018 C 
HETATM    4  C4  UNL     1      -0.216   1.796  -0.836  1.00  0.00     0.004 C 
HETATM    5  C5  UNL     1       1.029   2.234  -1.616  1.00  0.00     0.007 C 
HETATM    6  C6  UNL     1       2.339   1.720  -0.976  1.00  0.00     0.049 C 
HETATM    7  C7  UNL     1       2.188   0.218  -0.812  1.00  0.00    -0.033 C 
HETATM    8  C8  UNL     1       1.017  -0.429  -0.697  1.00  0.00    -0.049 C 
HETATM    9  C9  UNL     1       0.967  -1.939  -0.661  1.00  0.00     0.022 C 
HETATM   10  C10 UNL     1       0.019  -2.456   0.429  1.00  0.00     0.004 C 
HETATM   11  C11 UNL     1      -1.368  -1.793   0.315  1.00  0.00     0.001 C 
HETATM   12  C12 UNL     1      -2.498  -2.512   1.114  1.00  0.00     0.000 C 
HETATM   13  C13 UNL     1      -3.824  -1.734   0.949  1.00  0.00     0.000 C 
HETATM   14  C14 UNL     1      -3.687  -0.234   1.231  1.00  0.00     0.000 C 
HETATM   15  C15 UNL     1      -2.744  -3.930   0.526  1.00  0.00     0.000 C 
HETATM   16  C16 UNL     1      -2.203  -2.733   2.614  1.00  0.00     0.000 C 
HETATM   17  C19 UNL     1       2.560   2.320   0.427  1.00  0.00     0.007 C 
HETATM   18  C20 UNL     1      -0.611   0.198   1.782  1.00  0.00     0.000 C 
ENDROOT
BRANCH   6  19
HETATM   19  C17 UNL     1       3.532   2.020  -1.915  1.00  0.00     0.189 C 
HETATM   20  O2  UNL     1       4.722   1.448  -1.417  1.00  0.00    -0.220 OA
BRANCH  19  21
HETATM   21  C18 UNL     1       3.861   3.481  -2.187  1.00  0.00     0.215 C 
HETATM   22  O1  UNL     1       4.579   4.009  -1.091  1.00  0.00    -0.218 OA
ENDBRANCH  19  21
ENDBRANCH   6  19
TORSDOF 2
