REMARK  6 active torsions:
REMARK  status: ('A' for Active; 'I' for Inactive)
REMARK    1  A    between atoms: C6_6  and  C7_7 
REMARK    2  A    between atoms: C7_7  and  C8_8 
REMARK    3  A    between atoms: C9_9  and  C10_10 
REMARK    4  A    between atoms: C16_19  and  C25_31 
REMARK    5  A    between atoms: C17_20  and  C18_21 
REMARK    6  A    between atoms: C18_21  and  C19_23 
ROOT
HETATM    1  C1  UNL     1      -3.014   0.378   1.129  1.00  0.00     0.163 A 
HETATM    2  C2  UNL     1      -2.598  -0.844   1.506  1.00  0.00     0.182 A 
HETATM    3  C3  UNL     1      -1.459  -1.392   1.044  1.00  0.00     0.160 A 
HETATM    4  C4  UNL     1      -0.742  -0.673   0.161  1.00  0.00     0.056 A 
HETATM    5  C5  UNL     1      -1.177   0.532  -0.232  1.00  0.00     0.107 A 
HETATM    6  C6  UNL     1      -2.274   1.126   0.280  1.00  0.00     0.089 A 
HETATM    7  O3  UNL     1      -0.408   1.047  -1.039  1.00  0.00    -0.307 OA
HETATM    8  C16 UNL     1       0.562   0.303  -1.227  1.00  0.00     0.103 A 
HETATM    9  C17 UNL     1       0.398  -0.853  -0.538  1.00  0.00     0.066 A 
HETATM   10  O8  UNL     1      -1.172  -2.655   1.453  1.00  0.00    -0.188 OA
HETATM   11  O9  UNL     1      -3.368  -1.545   2.383  1.00  0.00    -0.186 OA
HETATM   12  O10 UNL     1      -4.216   0.761   1.637  1.00  0.00    -0.188 OA
ENDROOT
BRANCH   6  13
HETATM   13  C7  UNL     1      -2.592   2.410  -0.071  1.00  0.00     0.200 C 
HETATM   14  O2  UNL     1      -2.232   2.848  -1.144  1.00  0.00    -0.286 OA
BRANCH  13  15
HETATM   15  C8  UNL     1      -3.317   3.273   0.702  1.00  0.00     0.042 C 
HETATM   16  C9  UNL     1      -3.572   3.284   2.027  1.00  0.00     0.003 C 
BRANCH  16  17
HETATM   17  C10 UNL     1      -3.011   2.592   3.043  1.00  0.00     0.000 A 
HETATM   18  C11 UNL     1      -3.663   2.477   4.217  1.00  0.00     0.002 A 
HETATM   19  C12 UNL     1      -3.172   1.734   5.221  1.00  0.00     0.027 A 
HETATM   20  C13 UNL     1      -1.989   1.105   5.119  1.00  0.00     0.131 A 
HETATM   21  C14 UNL     1      -1.295   1.290   3.986  1.00  0.00     0.027 A 
HETATM   22  O1  UNL     1      -1.489   0.343   6.128  1.00  0.00    -0.190 OA
HETATM   23  C15 UNL     1      -1.788   2.030   2.982  1.00  0.00     0.002 A 
ENDBRANCH  16  17
ENDBRANCH  13  15
ENDBRANCH   6  13
BRANCH   9  24
HETATM   24  C18 UNL     1       1.180  -1.968  -0.483  1.00  0.00     0.200 C 
HETATM   25  O4  UNL     1       1.182  -2.565   0.568  1.00  0.00    -0.286 OA
BRANCH  24  26
HETATM   26  C19 UNL     1       1.904  -2.472  -1.529  1.00  0.00     0.065 A 
HETATM   27  C20 UNL     1       2.831  -3.438  -1.323  1.00  0.00     0.136 A 
HETATM   28  O5  UNL     1       3.152  -3.929  -0.092  1.00  0.00    -0.190 OA
HETATM   29  C21 UNL     1       3.519  -3.912  -2.378  1.00  0.00     0.055 A 
HETATM   30  C22 UNL     1       3.316  -3.504  -3.639  1.00  0.00     0.133 A 
HETATM   31  C23 UNL     1       2.365  -2.580  -3.832  1.00  0.00     0.028 A 
HETATM   32  O6  UNL     1       4.027  -4.016  -4.679  1.00  0.00    -0.190 OA
HETATM   33  C24 UNL     1       1.671  -2.083  -2.798  1.00  0.00     0.007 A 
ENDBRANCH  24  26
ENDBRANCH   9  24
BRANCH   8  34
HETATM   34  C25 UNL     1       1.580   0.817  -1.961  1.00  0.00     0.023 A 
HETATM   35  C26 UNL     1       1.388   1.935  -2.694  1.00  0.00     0.004 A 
HETATM   36  C27 UNL     1       2.357   2.481  -3.445  1.00  0.00     0.028 A 
HETATM   37  C28 UNL     1       3.590   1.954  -3.490  1.00  0.00     0.131 A 
HETATM   38  C29 UNL     1       3.814   0.878  -2.719  1.00  0.00     0.028 A 
HETATM   39  O7  UNL     1       4.570   2.513  -4.248  1.00  0.00    -0.190 OA
HETATM   40  C30 UNL     1       2.839   0.336  -1.972  1.00  0.00     0.004 A 
ENDBRANCH   8  34
TORSDOF 6
