REMARK  4 active torsions:
REMARK  status: ('A' for Active; 'I' for Inactive)
REMARK    1  A    between atoms: C7_7  and  C17_19 
REMARK    2  A    between atoms: N1_9  and  C9_10 
REMARK    3  A    between atoms: C9_10  and  C10_11 
REMARK    4  A    between atoms: C17_19  and  C18_20 
ROOT
HETATM    1  C1  UNL     1      -3.180   1.027  -1.016  1.00  0.00     0.006 A 
HETATM    2  C2  UNL     1      -3.141  -0.314  -1.086  1.00  0.00     0.036 A 
HETATM    3  C3  UNL     1      -1.979  -0.971  -0.935  1.00  0.00     0.023 A 
HETATM    4  C4  UNL     1      -0.849  -0.281  -0.705  1.00  0.00     0.054 A 
HETATM    5  C5  UNL     1      -0.899   1.056  -0.600  1.00  0.00    -0.003 A 
HETATM    6  C6  UNL     1      -2.054   1.715  -0.773  1.00  0.00    -0.002 A 
HETATM    7  C7  UNL     1       0.434   1.679  -0.251  1.00  0.00     0.075 C 
HETATM    8  C8  UNL     1       1.299   0.405  -0.465  1.00  0.00     0.308 C 
HETATM    9  N1  UNL     1       0.334  -0.718  -0.549  1.00  0.00    -0.320 N 
HETATM   10  N2  UNL     1       1.990   0.615  -1.731  1.00  0.00     0.158 N 
HETATM   11  C14 UNL     1       2.246   2.039  -1.797  1.00  0.00     0.253 C 
HETATM   12  C15 UNL     1       0.914   2.651  -1.349  1.00  0.00     0.044 C 
HETATM   13  C16 UNL     1       3.196  -0.174  -1.899  1.00  0.00     0.288 C 
HETATM   14 BR1  UNL     1      -4.732  -1.286  -1.418  1.00  0.00    -0.049 Br
ENDROOT
BRANCH   7  15
HETATM   15  C17 UNL     1       0.467   2.229   1.208  1.00  0.00     0.026 C 
HETATM   16  C20 UNL     1       1.884   2.708   1.612  1.00  0.00     0.005 C 
HETATM   17  C21 UNL     1       0.054   1.146   2.233  1.00  0.00     0.005 C 
BRANCH  15  18
HETATM   18  C18 UNL     1      -0.426   3.460   1.322  1.00  0.00    -0.026 C 
HETATM   19  C19 UNL     1      -1.634   3.524   1.903  1.00  0.00    -0.005 C 
ENDBRANCH  15  18
ENDBRANCH   7  15
BRANCH   9  20
HETATM   20  C9  UNL     1       0.635  -2.162  -0.548  1.00  0.00     0.129 C 
BRANCH  20  21
HETATM   21  C10 UNL     1      -0.083  -2.865   0.577  1.00  0.00    -0.011 C 
HETATM   22  C11 UNL     1      -0.664  -4.078   0.529  1.00  0.00    -0.046 C 
HETATM   23  C12 UNL     1      -1.395  -4.640   1.728  1.00  0.00     0.026 C 
HETATM   24  C13 UNL     1      -0.671  -4.984  -0.679  1.00  0.00     0.026 C 
ENDBRANCH  20  21
ENDBRANCH   9  20
TORSDOF 4
