REMARK  3 active torsions:
REMARK  status: ('A' for Active; 'I' for Inactive)
REMARK    1  A    between atoms: C1_1  and  C8_9 
REMARK    2  A    between atoms: C8_9  and  O1_10 
REMARK    3  A    between atoms: O1_10  and  S2_11 
ROOT
HETATM    1  C1  UNL     1      -0.397   0.168   0.940  1.00  0.00     0.034 A 
HETATM    2  C2  UNL     1      -0.146  -0.802   0.046  1.00  0.00    -0.021 A 
HETATM    3  C3  UNL     1      -1.284  -1.452  -0.238  1.00  0.00    -0.024 A 
HETATM    4  C4  UNL     1      -2.275  -0.899   0.478  1.00  0.00     0.003 A 
HETATM    5  S1  UNL     1      -1.813   0.206   1.332  1.00  0.00    -0.094 SA
HETATM    6  C5  UNL     1      -3.728  -1.308   0.481  1.00  0.00     0.038 C 
HETATM    7  C6  UNL     1      -1.385  -2.598  -1.210  1.00  0.00     0.031 C 
HETATM    8  C7  UNL     1       1.202  -1.116  -0.538  1.00  0.00     0.031 C 
ENDROOT
BRANCH   1   9
HETATM    9  C8  UNL     1       0.635   1.119   1.506  1.00  0.00     0.193 C 
BRANCH   9  10
HETATM   10  O1  UNL     1       1.101   2.002   0.499  1.00  0.00    -0.271 OA
BRANCH  10  11
HETATM   11  S2  UNL     1       2.738   2.290   0.511  1.00  0.00     0.169 S 
HETATM   12  C9  UNL     1       3.122   3.563  -0.723  1.00  0.00     0.138 C 
HETATM   13  O2  UNL     1       3.481   0.863   0.097  1.00  0.00    -0.227 OA
ENDBRANCH  10  11
ENDBRANCH   9  10
ENDBRANCH   1   9
TORSDOF 3
