REMARK  8 active torsions:
REMARK  status: ('A' for Active; 'I' for Inactive)
REMARK    1  A    between atoms: C15_15  and  C20_22 
REMARK    2  A    between atoms: C17_17  and  O1_18 
REMARK    3  A    between atoms: O1_18  and  C18_19 
REMARK    4  A    between atoms: C20_22  and  C21_23 
REMARK    5  A    between atoms: C20_22  and  C22_26 
REMARK    6  A    between atoms: C22_26  and  C23_27 
REMARK    7  A    between atoms: C23_27  and  C24_28 
REMARK    8  A    between atoms: C24_28  and  C25_29 
ROOT
HETATM    1  C1  UNL     1      -5.169   0.317  -2.893  1.00  0.00     0.065 C 
HETATM    2  C2  UNL     1      -5.127  -1.006  -3.631  1.00  0.00     0.150 C 
HETATM    3  C3  UNL     1      -4.162  -2.075  -3.110  1.00  0.00     0.052 C 
HETATM    4  C4  UNL     1      -4.239  -2.160  -1.554  1.00  0.00     0.015 C 
HETATM    5  C5  UNL     1      -4.280  -0.814  -0.784  1.00  0.00     0.019 C 
HETATM    6  C6  UNL     1      -5.399   0.053  -1.407  1.00  0.00     0.012 C 
HETATM    7  C7  UNL     1      -2.885  -0.180  -0.710  1.00  0.00    -0.031 C 
HETATM    8  C8  UNL     1      -1.781  -0.960  -0.638  1.00  0.00    -0.029 C 
HETATM    9  C9  UNL     1      -1.885  -2.298  -0.710  1.00  0.00    -0.031 C 
HETATM   10  C10 UNL     1      -3.163  -3.056  -0.922  1.00  0.00     0.026 C 
HETATM   11  C11 UNL     1      -0.399  -0.320  -0.540  1.00  0.00     0.044 C 
HETATM   12  C12 UNL     1      -0.489   0.941   0.365  1.00  0.00     0.010 C 
HETATM   13  C13 UNL     1      -1.466   1.899  -0.329  1.00  0.00     0.026 C 
HETATM   14  C14 UNL     1      -2.752   1.159  -0.610  1.00  0.00    -0.031 C 
HETATM   15  C15 UNL     1       0.995   1.376   0.484  1.00  0.00     0.013 C 
HETATM   16  C16 UNL     1       1.701   0.008   0.639  1.00  0.00     0.031 C 
HETATM   17  C17 UNL     1       0.726  -1.087   0.173  1.00  0.00     0.128 C 
HETATM   18  C29 UNL     1      -1.052   0.635   1.780  1.00  0.00     0.001 C 
HETATM   19  C30 UNL     1       0.037  -0.059  -2.006  1.00  0.00     0.007 C 
HETATM   20  C31 UNL     1      -4.695  -1.033   0.696  1.00  0.00     0.004 C 
HETATM   21  C32 UNL     1      -4.566  -3.428  -3.748  1.00  0.00     0.007 C 
HETATM   22  C33 UNL     1      -2.776  -1.698  -3.670  1.00  0.00     0.007 C 
HETATM   23  O5  UNL     1      -5.806  -1.168  -4.621  1.00  0.00    -0.296 OA
ENDROOT
BRANCH  15  24
HETATM   24  C20 UNL     1       1.367   2.435   1.547  1.00  0.00     0.088 C 
BRANCH  24  25
HETATM   25  C21 UNL     1       0.534   3.697   1.329  1.00  0.00     0.185 C 
HETATM   26  O3  UNL     1      -0.140   4.070   2.431  1.00  0.00    -0.647 OA
HETATM   27  O4  UNL     1       0.474   4.340   0.308  1.00  0.00    -0.647 OA
ENDBRANCH  24  25
BRANCH  24  28
HETATM   28  C22 UNL     1       2.849   2.888   1.543  1.00  0.00     0.015 C 
BRANCH  28  29
HETATM   29  C23 UNL     1       3.852   1.924   2.199  1.00  0.00     0.022 C 
BRANCH  29  30
HETATM   30  C24 UNL     1       5.306   2.359   2.296  1.00  0.00    -0.044 C 
HETATM   31  C28 UNL     1       5.687   3.638   2.144  1.00  0.00    -0.009 C 
BRANCH  30  32
HETATM   32  C25 UNL     1       6.296   1.235   2.591  1.00  0.00     0.018 C 
HETATM   33  C26 UNL     1       7.783   1.623   2.499  1.00  0.00     0.004 C 
HETATM   34  C27 UNL     1       6.026   0.597   3.966  1.00  0.00     0.004 C 
ENDBRANCH  30  32
ENDBRANCH  29  30
ENDBRANCH  28  29
ENDBRANCH  24  28
ENDBRANCH  15  24
BRANCH  17  35
HETATM   35  O1  UNL     1       1.354  -2.014  -0.661  1.00  0.00    -0.304 OA
BRANCH  35  36
HETATM   36  C18 UNL     1       2.152  -2.941  -0.068  1.00  0.00     0.272 C 
HETATM   37  C19 UNL     1       2.657  -3.926  -1.102  1.00  0.00     0.106 C 
HETATM   38  O2  UNL     1       2.404  -2.990   1.115  1.00  0.00    -0.264 OA
ENDBRANCH  35  36
ENDBRANCH  17  35
TORSDOF 8
