REMARK  9 active torsions:
REMARK  status: ('A' for Active; 'I' for Inactive)
REMARK    1  A    between atoms: C15_15  and  C18_18 
REMARK    2  A    between atoms: C18_18  and  C19_19 
REMARK    3  A    between atoms: C18_18  and  C23_27 
REMARK    4  A    between atoms: C19_19  and  O1_20 
REMARK    5  A    between atoms: O1_20  and  C20_21 
REMARK    6  A    between atoms: C20_21  and  C21_22 
REMARK    7  A    between atoms: C21_22  and  C22_23 
REMARK    8  A    between atoms: C23_27  and  C24_28 
REMARK    9  A    between atoms: C24_28  and  C25_29 
ROOT
HETATM    1  C1  UNL     1      -5.294  -1.562  -2.877  1.00  0.00     0.065 C 
HETATM    2  C2  UNL     1      -5.696  -2.731  -2.005  1.00  0.00     0.150 C 
HETATM    3  C3  UNL     1      -4.583  -3.718  -1.655  1.00  0.00     0.052 C 
HETATM    4  C4  UNL     1      -3.236  -2.946  -1.559  1.00  0.00     0.015 C 
HETATM    5  C5  UNL     1      -3.333  -1.451  -1.162  1.00  0.00     0.019 C 
HETATM    6  C6  UNL     1      -4.173  -0.723  -2.246  1.00  0.00     0.012 C 
HETATM    7  C7  UNL     1      -1.934  -0.819  -1.042  1.00  0.00    -0.031 C 
HETATM    8  C8  UNL     1      -0.826  -1.564  -0.828  1.00  0.00    -0.031 C 
HETATM    9  C9  UNL     1      -0.902  -2.898  -0.694  1.00  0.00    -0.031 C 
HETATM   10  C10 UNL     1      -2.183  -3.675  -0.717  1.00  0.00     0.026 C 
HETATM   11  C11 UNL     1       0.537  -0.890  -0.786  1.00  0.00     0.019 C 
HETATM   12  C12 UNL     1       0.435   0.467  -0.033  1.00  0.00     0.007 C 
HETATM   13  C13 UNL     1      -0.538   1.308  -0.870  1.00  0.00     0.026 C 
HETATM   14  C14 UNL     1      -1.807   0.524  -1.104  1.00  0.00    -0.031 C 
HETATM   15  C15 UNL     1       1.915   0.930   0.059  1.00  0.00     0.003 C 
HETATM   16  C16 UNL     1       2.625  -0.416   0.351  1.00  0.00     0.000 C 
HETATM   17  C17 UNL     1       1.668  -1.572   0.001  1.00  0.00     0.004 C 
HETATM   18  C29 UNL     1      -0.151   0.289   1.394  1.00  0.00     0.001 C 
HETATM   19  C30 UNL     1       0.991  -0.825  -2.268  1.00  0.00     0.004 C 
HETATM   20  C31 UNL     1      -3.994  -1.251   0.222  1.00  0.00     0.004 C 
HETATM   21  C32 UNL     1      -4.968  -4.488  -0.372  1.00  0.00     0.007 C 
HETATM   22  C33 UNL     1      -4.537  -4.755  -2.801  1.00  0.00     0.007 C 
HETATM   23  O5  UNL     1      -6.845  -2.885  -1.658  1.00  0.00    -0.296 OA
ENDROOT
BRANCH  15  24
HETATM   24  C18 UNL     1       2.327   2.105   0.991  1.00  0.00     0.031 C 
BRANCH  24  25
HETATM   25  C19 UNL     1       1.603   3.418   0.613  1.00  0.00     0.152 C 
BRANCH  25  26
HETATM   26  O1  UNL     1       0.421   3.555   1.354  1.00  0.00    -0.301 OA
BRANCH  26  27
HETATM   27  C20 UNL     1      -0.438   4.541   0.980  1.00  0.00     0.283 C 
HETATM   28  O4  UNL     1      -0.240   5.338   0.091  1.00  0.00    -0.264 OA
BRANCH  27  29
HETATM   29  C21 UNL     1      -1.713   4.475   1.806  1.00  0.00     0.193 C 
BRANCH  29  30
HETATM   30  C22 UNL     1      -2.800   5.401   1.286  1.00  0.00     0.196 C 
HETATM   31  O2  UNL     1      -3.385   4.907   0.180  1.00  0.00    -0.647 OA
HETATM   32  O3  UNL     1      -3.148   6.447   1.780  1.00  0.00    -0.647 OA
ENDBRANCH  29  30
ENDBRANCH  27  29
ENDBRANCH  26  27
ENDBRANCH  25  26
ENDBRANCH  24  25
BRANCH  24  33
HETATM   33  C23 UNL     1       3.854   2.405   0.993  1.00  0.00     0.007 C 
BRANCH  33  34
HETATM   34  C24 UNL     1       4.772   1.426   1.748  1.00  0.00     0.025 C 
BRANCH  34  35
HETATM   35  C25 UNL     1       6.175   1.947   1.957  1.00  0.00    -0.035 C 
HETATM   36  C26 UNL     1       7.245   1.195   2.275  1.00  0.00    -0.048 C 
HETATM   37  C27 UNL     1       8.614   1.810   2.448  1.00  0.00     0.026 C 
HETATM   38  C28 UNL     1       7.199  -0.300   2.485  1.00  0.00     0.026 C 
ENDBRANCH  34  35
ENDBRANCH  33  34
ENDBRANCH  24  33
ENDBRANCH  15  24
TORSDOF 9
