REMARK  0 active torsions:
REMARK  status: ('A' for Active; 'I' for Inactive)
ROOT
HETATM    1  C1  UNL     1      -3.361  -1.833  -0.973  1.00  0.00     0.033 C 
HETATM    2  C2  UNL     1      -3.333  -3.353  -1.065  1.00  0.00     0.152 C 
HETATM    3  C3  UNL     1      -2.025  -3.963  -0.518  1.00  0.00     0.029 C 
HETATM    4  C4  UNL     1      -1.767  -3.421   0.927  1.00  0.00     0.006 C 
HETATM    5  C5  UNL     1      -1.915  -1.887   1.149  1.00  0.00     0.015 C 
HETATM    6  C6  UNL     1      -3.233  -1.414   0.493  1.00  0.00     0.006 C 
HETATM    7  C7  UNL     1      -0.668  -1.141   0.677  1.00  0.00    -0.050 C 
HETATM    8  C8  UNL     1       0.553  -1.706   0.774  1.00  0.00    -0.052 C 
HETATM    9  C9  UNL     1       0.785  -3.125   1.229  1.00  0.00     0.021 C 
HETATM   10  C10 UNL     1      -0.475  -3.913   1.608  1.00  0.00     0.005 C 
HETATM   11  C11 UNL     1       1.768  -0.936   0.297  1.00  0.00     0.017 C 
HETATM   12  C12 UNL     1       1.631   0.547   0.741  1.00  0.00     0.029 C 
HETATM   13  C13 UNL     1       0.450   1.124  -0.034  1.00  0.00     0.122 C 
HETATM   14  C14 UNL     1      -0.826   0.326   0.296  1.00  0.00     0.051 C 
HETATM   15  O1  UNL     1       0.224   2.467   0.286  1.00  0.00    -0.336 OA
HETATM   16  C15 UNL     1       0.806   3.442  -0.545  1.00  0.00     0.195 C 
HETATM   17  C16 UNL     1       2.330   3.422  -0.507  1.00  0.00     0.057 C 
HETATM   18  C17 UNL     1       3.111   2.111  -0.751  1.00  0.00     0.005 C 
HETATM   19  C18 UNL     1       3.026   1.159   0.464  1.00  0.00     0.003 C 
HETATM   20  C19 UNL     1       3.986  -0.056   0.465  1.00  0.00     0.000 C 
HETATM   21  C20 UNL     1       3.152  -1.286   0.868  1.00  0.00     0.004 C 
HETATM   22  C21 UNL     1       4.581   2.486  -1.049  1.00  0.00     0.000 C 
HETATM   23  O2  UNL     1       0.300   3.253  -1.843  1.00  0.00    -0.281 OA
HETATM   24  C22 UNL     1      -0.819   3.984  -2.079  1.00  0.00     0.273 C 
HETATM   25  C23 UNL     1      -1.113   4.846  -0.871  1.00  0.00     0.091 C 
HETATM   26  C24 UNL     1       0.212   4.787  -0.094  1.00  0.00     0.061 C 
HETATM   27  C25 UNL     1       1.053   6.032  -0.436  1.00  0.00     0.006 C 
HETATM   28  C26 UNL     1      -2.337   4.356  -0.085  1.00  0.00     0.011 C 
HETATM   29  O3  UNL     1      -1.470   3.946  -3.099  1.00  0.00    -0.264 OA
HETATM   30  C27 UNL     1       1.368   0.693   2.269  1.00  0.00     0.003 C 
HETATM   31  C28 UNL     1       1.827  -1.204  -1.232  1.00  0.00     0.004 C 
HETATM   32  C29 UNL     1      -2.052  -1.556   2.661  1.00  0.00     0.004 C 
HETATM   33  C30 UNL     1      -2.214  -5.503  -0.480  1.00  0.00     0.003 C 
HETATM   34  C31 UNL     1      -0.864  -3.690  -1.495  1.00  0.00     0.003 C 
HETATM   35  O4  UNL     1      -3.563  -3.723  -2.406  1.00  0.00    -0.224 OA
ENDROOT
TORSDOF 0
