REMARK  5 active torsions:
REMARK  status: ('A' for Active; 'I' for Inactive)
REMARK    1  A    between atoms: C1_1  and  C3_3 
REMARK    2  A    between atoms: C4_4  and  O1_5 
REMARK    3  A    between atoms: C11_12  and  O2_22 
REMARK    4  A    between atoms: O2_22  and  C21_23 
REMARK    5  A    between atoms: C22_24  and  C23_25 
ROOT
HETATM    1  C3  UNL     1      -3.770   0.933  -1.894  1.00  0.00    -0.001 A 
HETATM    2  C4  UNL     1      -4.503  -0.202  -1.871  1.00  0.00     0.090 A 
HETATM    3  C6  UNL     1      -3.820  -1.360  -1.768  1.00  0.00     0.019 A 
HETATM    4  C7  UNL     1      -2.479  -1.462  -1.685  1.00  0.00    -0.022 A 
HETATM    5  C8  UNL     1      -1.777  -0.318  -1.724  1.00  0.00     0.006 A 
HETATM    6  C9  UNL     1      -2.431   0.849  -1.836  1.00  0.00    -0.004 A 
HETATM    7  C10 UNL     1      -0.274  -0.295  -1.637  1.00  0.00     0.202 C 
HETATM    8  C11 UNL     1       0.283  -1.520  -0.913  1.00  0.00     0.156 C 
HETATM    9  C12 UNL     1      -0.256  -2.776  -1.633  1.00  0.00     0.034 C 
HETATM   10  C13 UNL     1      -1.811  -2.837  -1.493  1.00  0.00     0.021 C 
HETATM   11  C14 UNL     1      -2.363  -3.829  -2.553  1.00  0.00     0.004 C 
HETATM   12  C15 UNL     1      -1.387  -4.937  -2.978  1.00  0.00     0.000 C 
HETATM   13  C16 UNL     1      -0.442  -5.325  -1.837  1.00  0.00     0.000 C 
HETATM   14  C17 UNL     1       0.469  -4.142  -1.413  1.00  0.00     0.003 C 
HETATM   15  C18 UNL     1       0.941  -4.385   0.038  1.00  0.00     0.000 C 
HETATM   16  C19 UNL     1       1.719  -4.224  -2.329  1.00  0.00     0.000 C 
HETATM   17  C20 UNL     1      -2.269  -3.269  -0.073  1.00  0.00     0.004 C 
HETATM   18  O3  UNL     1       0.233  -0.184  -2.956  1.00  0.00    -0.216 OA
ENDROOT
BRANCH   8  19
HETATM   19  O2  UNL     1       1.684  -1.452  -0.831  1.00  0.00    -0.331 OA
BRANCH  19  20
HETATM   20  C21 UNL     1       2.288  -0.442  -0.101  1.00  0.00     0.090 A 
HETATM   21  C22 UNL     1       3.618  -0.211  -0.205  1.00  0.00    -0.000 A 
HETATM   22  C26 UNL     1       4.169   0.789   0.509  1.00  0.00    -0.003 A 
HETATM   23  C27 UNL     1       3.459   1.619   1.293  1.00  0.00    -0.004 A 
HETATM   24  C28 UNL     1       2.135   1.435   1.402  1.00  0.00    -0.021 A 
HETATM   25  C33 UNL     1       4.087   2.606   1.948  1.00  0.00    -0.005 C 
HETATM   26  C29 UNL     1       1.620   0.388   0.729  1.00  0.00     0.020 A 
HETATM   27  C30 UNL     1       1.224   2.337   2.256  1.00  0.00     0.023 C 
HETATM   28  C31 UNL     1       1.936   3.624   2.779  1.00  0.00     0.026 C 
HETATM   29  C37 UNL     1       0.698   1.491   3.442  1.00  0.00     0.004 C 
HETATM   30  C40 UNL     1       0.043   2.771   1.343  1.00  0.00     0.005 C 
HETATM   31  C32 UNL     1       3.437   3.526   2.668  1.00  0.00    -0.026 C 
HETATM   32  C34 UNL     1       1.480   4.131   4.183  1.00  0.00     0.004 C 
HETATM   33  C35 UNL     1       1.630   3.008   5.237  1.00  0.00     0.000 C 
HETATM   34  C38 UNL     1       0.016   4.645   4.144  1.00  0.00     0.000 C 
HETATM   35  C39 UNL     1       2.284   5.370   4.664  1.00  0.00     0.000 C 
HETATM   36  C36 UNL     1       1.636   1.590   4.646  1.00  0.00     0.000 C 
BRANCH  21  37
HETATM   37  C23 UNL     1       4.545  -1.047  -1.084  1.00  0.00     0.024 C 
HETATM   38  C24 UNL     1       4.710  -2.474  -0.539  1.00  0.00     0.005 C 
HETATM   39  C25 UNL     1       4.190  -0.984  -2.579  1.00  0.00     0.005 C 
ENDBRANCH  21  37
ENDBRANCH  19  20
ENDBRANCH   8  19
BRANCH   1  40
HETATM   40  C1  UNL     1      -4.426   2.309  -1.966  1.00  0.00     0.024 C 
HETATM   41  C2  UNL     1      -4.146   3.111  -0.682  1.00  0.00     0.005 C 
HETATM   42  C41 UNL     1      -3.991   3.088  -3.218  1.00  0.00     0.005 C 
ENDBRANCH   1  40
BRANCH   2  43
HETATM   43  O1  UNL     1      -5.876  -0.118  -1.923  1.00  0.00    -0.328 OA
HETATM   44  C5  UNL     1      -6.650  -1.290  -1.802  1.00  0.00     0.181 C 
ENDBRANCH   2  43
TORSDOF 5
