REMARK  5 active torsions:
REMARK  status: ('A' for Active; 'I' for Inactive)
REMARK    1  A    between atoms: C3_3  and  C12_15 
REMARK    2  A    between atoms: C5_5  and  C7_8 
REMARK    3  A    between atoms: C7_8  and  C8_9 
REMARK    4  A    between atoms: C8_9  and  C9_10 
REMARK    5  A    between atoms: C12_15  and  C13_16 
ROOT
HETATM    1  C1  UNL     1      -0.634  -0.777   0.081  1.00  0.00     0.087 A 
HETATM    2  C2  UNL     1      -0.698   0.578   0.033  1.00  0.00     0.109 A 
HETATM    3  C3  UNL     1      -1.903   1.194   0.082  1.00  0.00     0.048 A 
HETATM    4  C4  UNL     1      -3.027   0.457   0.186  1.00  0.00     0.135 A 
HETATM    5  C5  UNL     1      -2.962  -0.892   0.227  1.00  0.00     0.047 A 
HETATM    6  C6  UNL     1      -1.765  -1.516   0.175  1.00  0.00     0.138 A 
HETATM    7  O1  UNL     1      -1.739  -2.874   0.278  1.00  0.00    -0.190 OA
HETATM    8  O3  UNL     1      -4.248   1.048   0.280  1.00  0.00    -0.190 OA
HETATM    9  O4  UNL     1       0.414   1.387  -0.056  1.00  0.00    -0.285 OA
HETATM   10  C17 UNL     1       1.599   0.731  -0.065  1.00  0.00     0.206 A 
HETATM   11  C18 UNL     1       1.678  -0.598  -0.030  1.00  0.00     0.088 A 
HETATM   12  C19 UNL     1       0.588  -1.393   0.030  1.00  0.00     0.203 A 
HETATM   13  O5  UNL     1       0.781  -2.586   0.041  1.00  0.00    -0.286 OA
HETATM   14  C20 UNL     1       2.985  -0.877  -0.060  1.00  0.00     0.032 A 
HETATM   15  C21 UNL     1       3.565   0.328  -0.103  1.00  0.00     0.104 A 
HETATM   16  O6  UNL     1       2.725   1.233  -0.108  1.00  0.00    -0.285 OA
HETATM   17  C22 UNL     1       4.904   0.439  -0.128  1.00  0.00     0.047 A 
HETATM   18  C23 UNL     1       5.659  -0.683  -0.104  1.00  0.00     0.121 A 
HETATM   19  C24 UNL     1       5.053  -1.893  -0.071  1.00  0.00     0.153 A 
HETATM   20  C25 UNL     1       3.713  -1.996  -0.047  1.00  0.00     0.032 A 
HETATM   21  O7  UNL     1       5.814  -3.024  -0.052  1.00  0.00    -0.188 OA
HETATM   22  O8  UNL     1       7.029  -0.677  -0.114  1.00  0.00    -0.329 OA
HETATM   23  C26 UNL     1       7.722   0.533  -0.254  1.00  0.00     0.117 A 
HETATM   24  C27 UNL     1       6.824   1.742  -0.202  1.00  0.00     0.001 A 
HETATM   25  C28 UNL     1       5.492   1.645  -0.159  1.00  0.00     0.002 A 
HETATM   26  C29 UNL     1       8.747   0.615   0.884  1.00  0.00     0.035 C 
HETATM   27  C30 UNL     1       8.444   0.511  -1.606  1.00  0.00     0.035 C 
ENDROOT
BRANCH   5  28
HETATM   28  C7  UNL     1      -4.297  -1.639   0.344  1.00  0.00    -0.019 C 
BRANCH  28  29
HETATM   29  C8  UNL     1      -4.436  -3.150   0.085  1.00  0.00     0.057 C 
BRANCH  29  30
HETATM   30  C9  UNL     1      -5.882  -3.679   0.059  1.00  0.00     0.131 C 
HETATM   31  C10 UNL     1      -5.892  -5.157  -0.347  1.00  0.00     0.033 C 
HETATM   32  C11 UNL     1      -6.591  -3.509   1.404  1.00  0.00     0.033 C 
HETATM   33  O2  UNL     1      -6.613  -2.972  -0.909  1.00  0.00    -0.226 OA
ENDBRANCH  29  30
ENDBRANCH  28  29
ENDBRANCH   5  28
BRANCH   3  34
HETATM   34  C12 UNL     1      -1.870   2.727   0.031  1.00  0.00     0.003 C 
BRANCH  34  35
HETATM   35  C13 UNL     1      -3.076   3.633  -0.057  1.00  0.00    -0.008 C 
HETATM   36  C14 UNL     1      -3.027   4.978  -0.117  1.00  0.00    -0.044 C 
HETATM   37  C15 UNL     1      -4.309   5.777  -0.177  1.00  0.00     0.026 C 
HETATM   38  C16 UNL     1      -1.753   5.787  -0.125  1.00  0.00     0.026 C 
ENDBRANCH  34  35
ENDBRANCH   3  34
TORSDOF 5
