REMARK  6 active torsions:
REMARK  status: ('A' for Active; 'I' for Inactive)
REMARK    1  A    between atoms: C9_10  and  O3_13 
REMARK    2  A    between atoms: O3_13  and  C11_14 
REMARK    3  A    between atoms: C16_20  and  O5_21 
REMARK    4  A    between atoms: O5_21  and  C17_22 
REMARK    5  A    between atoms: C20_26  and  O7_27 
REMARK    6  A    between atoms: O7_27  and  C21_28 
ROOT
HETATM    1  C1  UNL     1      -1.647  -0.499   3.067  1.00  0.00     0.066 C 
HETATM    2  C2  UNL     1      -1.292  -1.975   3.002  1.00  0.00     0.155 C 
HETATM    3  C3  UNL     1      -1.118  -2.470   1.553  1.00  0.00     0.031 C 
HETATM    4  C4  UNL     1      -0.127  -1.524   0.801  1.00  0.00     0.038 C 
HETATM    5  C5  UNL     1      -0.342   0.034   0.867  1.00  0.00     0.033 C 
HETATM    6  C6  UNL     1      -0.625   0.389   2.355  1.00  0.00     0.155 C 
HETATM    7  O1  UNL     1      -1.119   1.705   2.481  1.00  0.00    -0.223 OA
HETATM    8  C7  UNL     1       0.992   0.713   0.329  1.00  0.00     0.035 C 
HETATM    9  C8  UNL     1       1.479   0.186  -1.062  1.00  0.00     0.060 C 
HETATM   10  C9  UNL     1       1.632  -1.353  -1.021  1.00  0.00     0.157 C 
HETATM   11  C10 UNL     1       0.352  -2.047  -0.565  1.00  0.00     0.180 C 
HETATM   12  O2  UNL     1      -0.654  -1.943  -1.539  1.00  0.00    -0.221 OA
HETATM   13  C13 UNL     1       2.859   0.811  -1.380  1.00  0.00     0.009 C 
HETATM   14  C14 UNL     1       2.659   2.322  -1.720  1.00  0.00     0.023 C 
HETATM   15  C15 UNL     1       2.457   2.761  -0.231  1.00  0.00     0.034 C 
HETATM   16  C16 UNL     1       1.163   2.254   0.438  1.00  0.00     0.125 C 
HETATM   17  C19 UNL     1       1.696   1.806  -2.793  1.00  0.00    -0.017 C 
HETATM   18  C20 UNL     1       0.719   0.767  -2.283  1.00  0.00     0.145 C 
HETATM   19  C23 UNL     1       1.793   2.199  -4.074  1.00  0.00    -0.007 C 
HETATM   20  C24 UNL     1      -1.576   0.530   0.076  1.00  0.00     0.003 C 
HETATM   21  C25 UNL     1      -2.504  -2.607   0.883  1.00  0.00     0.003 C 
HETATM   22  C26 UNL     1      -0.567  -3.921   1.641  1.00  0.00     0.003 C 
HETATM   23  O9  UNL     1      -0.116  -2.181   3.753  1.00  0.00    -0.223 OA
ENDROOT
BRANCH  10  24
HETATM   24  O3  UNL     1       2.651  -1.721  -0.123  1.00  0.00    -0.302 OA
BRANCH  24  25
HETATM   25  C11 UNL     1       3.840  -2.188  -0.591  1.00  0.00     0.272 C 
HETATM   26  C12 UNL     1       4.772  -2.471   0.570  1.00  0.00     0.106 C 
HETATM   27  O4  UNL     1       4.129  -2.342  -1.756  1.00  0.00    -0.264 OA
ENDBRANCH  24  25
ENDBRANCH  10  24
BRANCH  18  28
HETATM   28  O7  UNL     1       0.486  -0.227  -3.249  1.00  0.00    -0.300 OA
BRANCH  28  29
HETATM   29  C21 UNL     1      -0.728  -0.449  -3.820  1.00  0.00     0.273 C 
HETATM   30  O8  UNL     1      -0.996  -1.538  -4.281  1.00  0.00    -0.264 OA
HETATM   31  C22 UNL     1      -1.666   0.739  -3.919  1.00  0.00     0.106 C 
ENDBRANCH  28  29
ENDBRANCH  18  28
BRANCH  16  32
HETATM   32  O5  UNL     1       1.239   2.627   1.787  1.00  0.00    -0.304 OA
BRANCH  32  33
HETATM   33  C17 UNL     1       0.562   3.684   2.318  1.00  0.00     0.272 C 
HETATM   34  O6  UNL     1       0.353   3.745   3.511  1.00  0.00    -0.264 OA
HETATM   35  C18 UNL     1       0.106   4.773   1.366  1.00  0.00     0.106 C 
ENDBRANCH  32  33
ENDBRANCH  16  32
TORSDOF 6
