REMARK  6 active torsions:
REMARK  status: ('A' for Active; 'I' for Inactive)
REMARK    1  A    between atoms: C6_6  and  O1_7 
REMARK    2  A    between atoms: O1_7  and  C7_8 
REMARK    3  A    between atoms: C11_13  and  O4_16 
REMARK    4  A    between atoms: O4_16  and  C13_17 
REMARK    5  A    between atoms: C18_23  and  O6_24 
REMARK    6  A    between atoms: O6_24  and  C19_25 
ROOT
HETATM    1  C1  UNL     1       5.054  -1.087   0.567  1.00  0.00     0.063 C 
HETATM    2  C2  UNL     1       5.634   0.281   0.257  1.00  0.00     0.155 C 
HETATM    3  C3  UNL     1       4.890   0.975  -0.895  1.00  0.00     0.031 C 
HETATM    4  C4  UNL     1       3.363   0.957  -0.578  1.00  0.00     0.038 C 
HETATM    5  C5  UNL     1       2.644  -0.393  -0.190  1.00  0.00     0.031 C 
HETATM    6  C6  UNL     1       3.546  -1.103   0.880  1.00  0.00     0.127 C 
HETATM    7  C9  UNL     1       1.196  -0.007   0.379  1.00  0.00     0.035 C 
HETATM    8  C10 UNL     1       0.403   1.042  -0.481  1.00  0.00     0.063 C 
HETATM    9  C11 UNL     1       1.237   2.297  -0.781  1.00  0.00     0.157 C 
HETATM   10  C12 UNL     1       2.542   1.919  -1.453  1.00  0.00     0.180 C 
HETATM   11  O3  UNL     1       2.291   1.411  -2.739  1.00  0.00    -0.221 OA
HETATM   12  C15 UNL     1      -0.862   1.526   0.276  1.00  0.00     0.009 C 
HETATM   13  C16 UNL     1      -1.779   0.309   0.195  1.00  0.00     0.023 C 
HETATM   14  C17 UNL     1      -1.207  -0.731   1.155  1.00  0.00     0.034 C 
HETATM   15  C18 UNL     1       0.240  -1.153   0.829  1.00  0.00     0.125 C 
HETATM   16  C21 UNL     1      -1.588  -0.112  -1.233  1.00  0.00    -0.015 C 
HETATM   17  C22 UNL     1      -0.254   0.382  -1.716  1.00  0.00     0.173 C 
HETATM   18  O8  UNL     1      -0.481   1.308  -2.763  1.00  0.00    -0.219 OA
HETATM   19  C23 UNL     1      -2.460  -0.815  -1.965  1.00  0.00    -0.007 C 
HETATM   20  C24 UNL     1       2.566  -1.393  -1.371  1.00  0.00     0.003 C 
HETATM   21  C25 UNL     1       5.261   0.325  -2.246  1.00  0.00     0.003 C 
HETATM   22  C26 UNL     1       5.459   2.420  -0.976  1.00  0.00     0.003 C 
HETATM   23  O9  UNL     1       5.595   1.058   1.434  1.00  0.00    -0.223 OA
ENDROOT
BRANCH   6  24
HETATM   24  O1  UNL     1       3.216  -2.462   1.014  1.00  0.00    -0.304 OA
BRANCH  24  25
HETATM   25  C7  UNL     1       3.632  -3.111   2.141  1.00  0.00     0.272 C 
HETATM   26  C8  UNL     1       3.521  -4.613   1.962  1.00  0.00     0.106 C 
HETATM   27  O2  UNL     1       4.112  -2.582   3.118  1.00  0.00    -0.264 OA
ENDBRANCH  24  25
ENDBRANCH   6  24
BRANCH  15  28
HETATM   28  O6  UNL     1       0.717  -1.764   1.995  1.00  0.00    -0.304 OA
BRANCH  28  29
HETATM   29  C19 UNL     1       0.410  -3.051   2.329  1.00  0.00     0.272 C 
HETATM   30  O7  UNL     1       0.629  -3.498   3.435  1.00  0.00    -0.264 OA
HETATM   31  C20 UNL     1      -0.100  -3.954   1.216  1.00  0.00     0.106 C 
ENDBRANCH  28  29
ENDBRANCH  15  28
BRANCH   9  32
HETATM   32  O4  UNL     1       1.538   2.989   0.405  1.00  0.00    -0.302 OA
BRANCH  32  33
HETATM   33  C13 UNL     1       0.924   4.170   0.685  1.00  0.00     0.272 C 
HETATM   34  C14 UNL     1       1.402   4.709   2.020  1.00  0.00     0.106 C 
HETATM   35  O5  UNL     1       0.106   4.723  -0.014  1.00  0.00    -0.264 OA
ENDBRANCH  32  33
ENDBRANCH   9  32
TORSDOF 6
