REMARK  7 active torsions:
REMARK  status: ('A' for Active; 'I' for Inactive)
REMARK    1  A    between atoms: C1_1  and  C28_31 
REMARK    2  A    between atoms: C2_2  and  C25_27 
REMARK    3  A    between atoms: C13_13  and  C14_14 
REMARK    4  A    between atoms: C15_16  and  C18_19 
REMARK    5  A    between atoms: C18_19  and  C19_20 
REMARK    6  A    between atoms: C28_31  and  C29_32 
REMARK    7  A    between atoms: C29_32  and  C30_33 
ROOT
HETATM    1  C1  UNL     1       1.110  -2.259  -0.448  1.00  0.00     0.003 C 
HETATM    2  C2  UNL     1       1.177  -3.232  -1.686  1.00  0.00     0.028 C 
HETATM    3  C3  UNL     1       2.585  -3.844  -1.881  1.00  0.00     0.002 C 
HETATM    4  C4  UNL     1       3.715  -2.809  -1.935  1.00  0.00     0.000 C 
HETATM    5  C5  UNL     1       3.786  -1.908  -0.684  1.00  0.00     0.000 C 
HETATM    6  C6  UNL     1       2.364  -1.292  -0.480  1.00  0.00     0.000 C 
HETATM    7  C7  UNL     1       2.377  -0.179   0.596  1.00  0.00     0.000 C 
HETATM    8  C8  UNL     1       3.478   0.885   0.426  1.00  0.00     0.000 C 
HETATM    9  C9  UNL     1       4.842   0.205   0.307  1.00  0.00     0.002 C 
HETATM   10  C10 UNL     1       4.834  -0.751  -0.912  1.00  0.00     0.000 C 
HETATM   11  C11 UNL     1       6.330  -1.142  -0.913  1.00  0.00     0.000 C 
HETATM   12  C12 UNL     1       7.078   0.176  -0.650  1.00  0.00     0.002 C 
HETATM   13  C13 UNL     1       6.128   1.057   0.207  1.00  0.00     0.025 C 
HETATM   14  C23 UNL     1       4.613   0.025  -2.245  1.00  0.00     0.000 C 
HETATM   15  C24 UNL     1       4.202  -2.805   0.509  1.00  0.00     0.000 C 
HETATM   16  C31 UNL     1       1.052  -3.057   0.874  1.00  0.00     0.000 C 
ENDROOT
BRANCH  13  17
HETATM   17  C14 UNL     1       6.810   1.531   1.515  1.00  0.00     0.093 C 
HETATM   18  O1  UNL     1       8.053   2.063   1.137  1.00  0.00    -0.361 OA
HETATM   19  C15 UNL     1       8.227   3.343   1.675  1.00  0.00     0.118 C 
HETATM   20  C16 UNL     1       6.819   3.919   1.749  1.00  0.00     0.032 C 
HETATM   21  C17 UNL     1       6.062   2.676   2.212  1.00  0.00     0.030 C 
HETATM   22  C22 UNL     1       7.059   0.389   2.511  1.00  0.00     0.030 C 
BRANCH  19  23
HETATM   23  C18 UNL     1       9.205   4.121   0.789  1.00  0.00     0.060 C 
BRANCH  23  24
HETATM   24  C19 UNL     1       9.977   5.272   1.449  1.00  0.00     0.129 C 
HETATM   25  C20 UNL     1      10.859   5.963   0.402  1.00  0.00     0.033 C 
HETATM   26  O2  UNL     1      10.825   4.731   2.429  1.00  0.00    -0.226 OA
HETATM   27  C21 UNL     1       9.074   6.301   2.127  1.00  0.00     0.033 C 
ENDBRANCH  23  24
ENDBRANCH  19  23
ENDBRANCH  13  17
BRANCH   1  28
HETATM   28  C28 UNL     1      -0.166  -1.356  -0.603  1.00  0.00     0.011 C 
BRANCH  28  29
HETATM   29  C29 UNL     1      -0.951  -0.948   0.660  1.00  0.00     0.098 C 
BRANCH  29  30
HETATM   30  C30 UNL     1      -1.877   0.244   0.486  1.00  0.00     0.185 C 
HETATM   31  O4  UNL     1      -2.193   1.026   1.350  1.00  0.00    -0.647 OA
HETATM   32  O5  UNL     1      -2.382   0.336  -0.758  1.00  0.00    -0.647 OA
ENDBRANCH  29  30
ENDBRANCH  28  29
ENDBRANCH   1  28
BRANCH   2  33
HETATM   33  C25 UNL     1       0.056  -4.301  -1.951  1.00  0.00     0.127 C 
HETATM   34  C26 UNL     1      -0.727  -3.948  -3.229  1.00  0.00     0.033 C 
HETATM   35  C27 UNL     1      -0.948  -4.617  -0.837  1.00  0.00     0.033 C 
HETATM   36  O3  UNL     1       0.644  -5.553  -2.225  1.00  0.00    -0.226 OA
ENDBRANCH   2  33
TORSDOF 7
