REMARK  3 active torsions:
REMARK  status: ('A' for Active; 'I' for Inactive)
REMARK    1  A    between atoms: C8_10  and  C9_11 
REMARK    2  A    between atoms: C20_28  and  C21_29 
REMARK    3  A    between atoms: C21_29  and  O10_31 
ROOT
HETATM    1  C1  UNL     1      -0.051  -3.457   0.967  1.00  0.00     0.030 C 
HETATM    2  C2  UNL     1       0.370  -1.497   0.643  1.00  0.00    -0.025 C 
HETATM    3  C3  UNL     1       1.377  -0.469   0.516  1.00  0.00     0.028 C 
HETATM    4  C4  UNL     1       1.261   1.561   0.565  1.00  0.00     0.083 C 
HETATM    5  C5  UNL     1       0.559   2.687  -0.468  1.00  0.00     0.051 C 
HETATM    6  C6  UNL     1      -0.788   3.423  -0.492  1.00  0.00     0.292 C 
HETATM    7  O1  UNL     1      -0.813   4.623  -0.309  1.00  0.00    -0.259 OA
HETATM    8  O2  UNL     1      -1.855   2.825  -1.141  1.00  0.00    -0.296 OA
HETATM    9  C7  UNL     1      -2.083   1.463  -1.100  1.00  0.00     0.186 C 
HETATM   10  C8  UNL     1      -1.429   0.554  -2.188  1.00  0.00     0.168 C 
HETATM   11  O5  UNL     1      -2.105  -0.615  -1.725  1.00  0.00    -0.347 OA
HETATM   12  C15 UNL     1      -1.494  -1.835  -1.960  1.00  0.00     0.175 C 
HETATM   13  C16 UNL     1      -0.811  -2.413  -0.636  1.00  0.00     0.180 C 
HETATM   14  O6  UNL     1       0.851  -2.745  -0.743  1.00  0.00    -0.326 OA
HETATM   15  C17 UNL     1       1.903  -2.857   0.574  1.00  0.00     0.276 C 
HETATM   16  O7  UNL     1       3.219  -2.325   0.409  1.00  0.00    -0.282 OA
HETATM   17  C18 UNL     1       3.146  -0.962   0.194  1.00  0.00     0.197 C 
HETATM   18  O8  UNL     1       4.378  -0.043   0.725  1.00  0.00    -0.284 OA
HETATM   19  C19 UNL     1       4.261   1.470   0.749  1.00  0.00     0.127 C 
HETATM   20  C20 UNL     1       3.073   2.303   0.545  1.00  0.00     0.074 C 
HETATM   21  C23 UNL     1       1.362  -2.466   2.242  1.00  0.00     0.241 C 
HETATM   22  C24 UNL     1      -0.306  -1.809   2.409  1.00  0.00     0.220 C 
HETATM   23  C25 UNL     1      -1.551  -2.036   1.062  1.00  0.00     0.215 C 
HETATM   24  O11 UNL     1      -2.425  -2.970   1.667  1.00  0.00    -0.218 OA
HETATM   25  O12 UNL     1      -0.340  -0.460   2.855  1.00  0.00    -0.218 OA
HETATM   26  O13 UNL     1       1.380  -3.633   3.135  1.00  0.00    -0.215 OA
ENDROOT
BRANCH  10  27
HETATM   27  C9  UNL     1       0.150   0.517  -2.388  1.00  0.00     0.009 A 
HETATM   28  C10 UNL     1       1.032   0.548  -3.473  1.00  0.00     0.000 A 
HETATM   29  C11 UNL     1       2.417   0.722  -3.220  1.00  0.00     0.029 A 
HETATM   30  C12 UNL     1       3.041   0.849  -1.933  1.00  0.00     0.156 A 
HETATM   31  O3  UNL     1       4.414   0.984  -1.977  1.00  0.00    -0.188 OA
HETATM   32  C13 UNL     1       2.263   0.686  -0.709  1.00  0.00     0.156 A 
HETATM   33  O4  UNL     1       2.579   0.623   1.074  1.00  0.00    -0.188 OA
HETATM   34  C14 UNL     1       0.889   0.527  -1.226  1.00  0.00     0.028 A 
ENDBRANCH  10  27
BRANCH  20  35
HETATM   35  C21 UNL     1       3.137   3.796   0.763  1.00  0.00     0.294 C 
HETATM   36  O9  UNL     1       2.135   4.276   1.285  1.00  0.00    -0.259 OA
BRANCH  35  37
HETATM   37  O10 UNL     1       4.135   4.677   0.379  1.00  0.00    -0.296 OA
HETATM   38  C22 UNL     1       5.432   4.188   0.236  1.00  0.00     0.185 C 
ENDBRANCH  35  37
ENDBRANCH  20  35
TORSDOF 3
