REMARK  7 active torsions:
REMARK  status: ('A' for Active; 'I' for Inactive)
REMARK    1  A    between atoms: C2_2  and  O5_29 
REMARK    2  A    between atoms: C8_8  and  C10_12 
REMARK    3  A    between atoms: C10_12  and  C11_13 
REMARK    4  A    between atoms: C13_15  and  C14_16 
REMARK    5  A    between atoms: C14_16  and  C15_17 
REMARK    6  A    between atoms: C16_18  and  C18_20 
REMARK    7  A    between atoms: C18_20  and  C19_21 
ROOT
HETATM    1  C10 UNL     1      -1.093   0.790   0.210  1.00  0.00     0.048 C 
HETATM    2  C24 UNL     1      -1.415  -0.005  -1.066  1.00  0.00     0.009 C 
ENDROOT
BRANCH   1   3
HETATM    3  C8  UNL     1      -1.176  -0.116   1.428  1.00  0.00     0.070 A 
HETATM    4  C7  UNL     1      -0.204  -1.021   1.711  1.00  0.00     0.134 A 
HETATM    5  C5  UNL     1      -0.336  -1.821   2.932  1.00  0.00     0.048 A 
HETATM    6  O4  UNL     1       0.882  -1.170   0.906  1.00  0.00    -0.190 OA
HETATM    7  C4  UNL     1      -1.451  -1.647   3.765  1.00  0.00     0.107 A 
HETATM    8  C6  UNL     1       0.656  -2.746   3.295  1.00  0.00     0.006 A 
HETATM    9  C3  UNL     1      -1.521  -2.408   4.941  1.00  0.00     0.049 A 
HETATM   10  O1  UNL     1      -2.454  -0.766   3.485  1.00  0.00    -0.273 OA
HETATM   11  C2  UNL     1      -0.552  -3.340   5.335  1.00  0.00     0.096 A 
HETATM   12  C1  UNL     1       0.544  -3.480   4.472  1.00  0.00     0.024 A 
HETATM   13  C9  UNL     1      -2.335  -0.021   2.352  1.00  0.00     0.298 A 
HETATM   14  O2  UNL     1      -3.231   0.776   2.081  1.00  0.00    -0.259 OA
BRANCH  11  15
HETATM   15  O5  UNL     1      -0.582  -4.084   6.489  1.00  0.00    -0.328 OA
HETATM   16  C25 UNL     1      -1.630  -3.862   7.403  1.00  0.00     0.181 C 
ENDBRANCH  11  15
ENDBRANCH   1   3
BRANCH   1  17
HETATM   17  C11 UNL     1       0.218   1.561   0.244  1.00  0.00    -0.044 C 
HETATM   18  C12 UNL     1       0.375   2.473   1.443  1.00  0.00     0.026 C 
HETATM   19  C13 UNL     1       1.174   1.425  -0.693  1.00  0.00    -0.030 C 
BRANCH  19  20
HETATM   20  C14 UNL     1       2.514   2.120  -0.669  1.00  0.00     0.051 C 
BRANCH  20  21
HETATM   21  C15 UNL     1       3.376   1.742  -1.848  1.00  0.00    -0.029 C 
HETATM   22  C16 UNL     1       4.235   2.541  -2.508  1.00  0.00    -0.041 C 
HETATM   23  C17 UNL     1       4.543   3.966  -2.113  1.00  0.00     0.026 C 
BRANCH  22  24
HETATM   24  C18 UNL     1       5.021   2.040  -3.702  1.00  0.00     0.073 C 
BRANCH  24  25
HETATM   25  C19 UNL     1       4.318   0.968  -4.482  1.00  0.00     0.081 A 
HETATM   26  C20 UNL     1       3.061   1.059  -5.010  1.00  0.00     0.018 A 
HETATM   27  C21 UNL     1       2.793  -0.198  -5.640  1.00  0.00     0.004 A 
HETATM   28  C22 UNL     1       3.906  -0.957  -5.439  1.00  0.00     0.118 A 
HETATM   29  C23 UNL     1       1.527  -0.611  -6.322  1.00  0.00     0.033 C 
HETATM   30  O3  UNL     1       4.851  -0.262  -4.746  1.00  0.00    -0.309 OA
ENDBRANCH  24  25
ENDBRANCH  22  24
ENDBRANCH  20  21
ENDBRANCH  19  20
ENDBRANCH   1  17
TORSDOF 7
