REMARK  12 active torsions:
REMARK  status: ('A' for Active; 'I' for Inactive)
REMARK    1  A    between atoms: C2_2  and  O6_31 
REMARK    2  A    between atoms: C3_3  and  O4_27 
REMARK    3  A    between atoms: C15_15  and  C18_18 
REMARK    4  A    between atoms: O4_27  and  C24_28 
REMARK    5  A    between atoms: O6_31  and  C26_32 
REMARK    6  A    between atoms: C28_35  and  O9_40 
REMARK    7  A    between atoms: C29_36  and  O8_38 
REMARK    8  A    between atoms: O9_40  and  C32_41 
REMARK    9  A    between atoms: C36_45  and  C37_47 
REMARK   10  A    between atoms: C37_47  and  O11_48 
REMARK   11  A    between atoms: O11_48  and  C38_49 
REMARK   12  A    between atoms: C42_53  and  C43_55 
ROOT
HETATM    1  C26 UNL     1      -0.115  -0.345   1.217  1.00  0.00     0.238 C 
HETATM    2  O7  UNL     1      -0.052  -1.703   0.825  1.00  0.00    -0.331 OA
HETATM    3  C27 UNL     1      -0.857  -2.048  -0.270  1.00  0.00     0.147 C 
HETATM    4  C28 UNL     1      -0.493  -1.214  -1.502  1.00  0.00     0.172 C 
HETATM    5  C29 UNL     1      -0.828   0.241  -1.179  1.00  0.00     0.150 C 
HETATM    6  C30 UNL     1      -0.013   0.632   0.047  1.00  0.00     0.094 C 
HETATM    7  C44 UNL     1      -2.339  -2.088   0.104  1.00  0.00     0.035 C 
ENDROOT
BRANCH   1   8
HETATM    8  O6  UNL     1       1.072  -0.223   1.987  1.00  0.00    -0.331 OA
BRANCH   8   9
HETATM    9  C2  UNL     1       0.963   0.080   3.345  1.00  0.00     0.145 C 
HETATM   10  C1  UNL     1       2.207  -0.469   4.052  1.00  0.00     0.032 C 
HETATM   11  C6  UNL     1       3.549   0.116   3.559  1.00  0.00     0.003 C 
HETATM   12  C5  UNL     1       3.475   1.520   2.904  1.00  0.00     0.003 C 
HETATM   13  C4  UNL     1       2.304   2.291   3.595  1.00  0.00     0.030 C 
HETATM   14  C7  UNL     1       4.794   2.332   3.132  1.00  0.00     0.007 C 
HETATM   15  C23 UNL     1       3.274   1.389   1.379  1.00  0.00     0.000 C 
HETATM   16  C3  UNL     1       0.919   1.592   3.602  1.00  0.00     0.151 C 
HETATM   17  C10 UNL     1       2.246   3.794   3.236  1.00  0.00     0.003 C 
HETATM   18  C9  UNL     1       3.586   4.519   3.448  1.00  0.00     0.007 C 
HETATM   19  C8  UNL     1       4.653   3.804   2.601  1.00  0.00     0.051 C 
HETATM   20  C11 UNL     1       6.067   4.119   2.899  1.00  0.00     0.149 C 
HETATM   21  C17 UNL     1       4.730   4.418   1.164  1.00  0.00     0.007 C 
HETATM   22  C12 UNL     1       7.021   3.457   1.870  1.00  0.00     0.052 C 
HETATM   23  O3  UNL     1       6.391   4.801   3.848  1.00  0.00    -0.296 OA
HETATM   24  C13 UNL     1       7.509   2.450   2.913  1.00  0.00     0.007 C 
HETATM   25  C15 UNL     1       7.427   4.829   1.319  1.00  0.00     0.009 C 
HETATM   26  C22 UNL     1       6.764   2.586   0.605  1.00  0.00     0.007 C 
HETATM   27  C14 UNL     1       6.203   1.598   3.177  1.00  0.00     0.001 C 
HETATM   28  C16 UNL     1       6.001   5.319   0.822  1.00  0.00     0.001 C 
BRANCH  16  29
HETATM   29  O4  UNL     1       0.015   2.190   2.721  1.00  0.00    -0.302 OA
BRANCH  29  30
HETATM   30  C24 UNL     1      -0.920   3.060   3.191  1.00  0.00     0.272 C 
HETATM   31  C25 UNL     1      -1.784   3.557   2.048  1.00  0.00     0.106 C 
HETATM   32  O5  UNL     1      -1.059   3.394   4.346  1.00  0.00    -0.264 OA
ENDBRANCH  29  30
ENDBRANCH  16  29
BRANCH  25  33
HETATM   33  C18 UNL     1       8.517   4.872   0.236  1.00  0.00     0.041 C 
HETATM   34  C19 UNL     1       8.896   6.277  -0.226  1.00  0.00     0.152 C 
HETATM   35  O1  UNL     1      10.226   6.202  -0.670  1.00  0.00    -0.302 OA
HETATM   36  C20 UNL     1      10.843   5.090  -0.192  1.00  0.00     0.272 C 
HETATM   37  C21 UNL     1       9.875   4.340   0.699  1.00  0.00     0.098 C 
HETATM   38  O2  UNL     1      11.987   4.769  -0.428  1.00  0.00    -0.264 OA
ENDBRANCH  25  33
ENDBRANCH   8   9
ENDBRANCH   1   8
BRANCH   5  39
HETATM   39  O8  UNL     1      -0.558   1.061  -2.283  1.00  0.00    -0.351 OA
HETATM   40  C31 UNL     1      -0.934   2.411  -2.115  1.00  0.00     0.174 C 
ENDBRANCH   5  39
BRANCH   4  41
HETATM   41  O9  UNL     1       0.882  -1.411  -1.694  1.00  0.00    -0.327 OA
BRANCH  41  42
HETATM   42  C32 UNL     1       1.436  -1.071  -2.941  1.00  0.00     0.270 C 
HETATM   43  C33 UNL     1       2.775  -0.407  -2.710  1.00  0.00     0.241 C 
HETATM   44  C34 UNL     1       3.770  -1.378  -2.108  1.00  0.00     0.220 C 
HETATM   45  O19 UNL     1       3.270   0.098  -3.931  1.00  0.00    -0.215 OA
HETATM   46  C35 UNL     1       3.839  -2.626  -2.971  1.00  0.00     0.215 C 
HETATM   47  O18 UNL     1       3.399  -1.720  -0.790  1.00  0.00    -0.218 OA
HETATM   48  C36 UNL     1       2.470  -3.212  -3.294  1.00  0.00     0.180 C 
HETATM   49  O17 UNL     1       4.471  -2.284  -4.185  1.00  0.00    -0.218 OA
HETATM   50  O10 UNL     1       1.541  -2.245  -3.717  1.00  0.00    -0.326 OA
BRANCH  48  51
HETATM   51  C37 UNL     1       1.912  -4.165  -2.238  1.00  0.00     0.177 C 
BRANCH  51  52
HETATM   52  O11 UNL     1       0.671  -4.644  -2.696  1.00  0.00    -0.326 OA
BRANCH  52  53
HETATM   53  C38 UNL     1       0.065  -5.603  -1.864  1.00  0.00     0.270 C 
HETATM   54  C39 UNL     1      -1.417  -5.689  -2.161  1.00  0.00     0.241 C 
HETATM   55  C40 UNL     1      -1.724  -6.363  -3.482  1.00  0.00     0.220 C 
HETATM   56  O16 UNL     1      -2.054  -6.404  -1.127  1.00  0.00    -0.215 OA
HETATM   57  C41 UNL     1      -0.956  -7.668  -3.573  1.00  0.00     0.215 C 
HETATM   58  O15 UNL     1      -1.378  -5.519  -4.553  1.00  0.00    -0.218 OA
HETATM   59  C42 UNL     1       0.519  -7.525  -3.222  1.00  0.00     0.184 C 
HETATM   60  O14 UNL     1      -1.539  -8.578  -2.667  1.00  0.00    -0.218 OA
HETATM   61  O12 UNL     1       0.725  -6.839  -2.016  1.00  0.00    -0.326 OA
BRANCH  59  62
HETATM   62  C43 UNL     1       1.413  -7.024  -4.350  1.00  0.00     0.214 C 
HETATM   63  O13 UNL     1       1.477  -8.002  -5.369  1.00  0.00    -0.218 OA
ENDBRANCH  59  62
ENDBRANCH  52  53
ENDBRANCH  51  52
ENDBRANCH  48  51
ENDBRANCH  41  42
ENDBRANCH   4  41
TORSDOF 12
