REMARK  7 active torsions:
REMARK  status: ('A' for Active; 'I' for Inactive)
REMARK    1  A    between atoms: C1_1  and  C11_16 
REMARK    2  A    between atoms: C2_2  and  C9_12 
REMARK    3  A    between atoms: C5_6  and  O1_7 
REMARK    4  A    between atoms: C9_12  and  O4_14 
REMARK    5  A    between atoms: C11_16  and  O5_17 
REMARK    6  A    between atoms: C13_19  and  C14_20 
REMARK    7  A    between atoms: C14_20  and  O7_22 
ROOT
HETATM    1  C1  UNL     1       2.194   0.119  -0.095  1.00  0.00     0.068 A 
HETATM    2  C2  UNL     1       1.750   0.513  -1.386  1.00  0.00     0.150 A 
HETATM    3  N1  UNL     1       0.476   0.477  -1.776  1.00  0.00    -0.216 NA
HETATM    4  C3  UNL     1      -0.451   0.103  -0.879  1.00  0.00     0.184 A 
HETATM    5  C4  UNL     1      -0.081  -0.282   0.415  1.00  0.00     0.066 A 
HETATM    6  C5  UNL     1       1.256  -0.361   0.839  1.00  0.00     0.101 A 
HETATM    7  C7  UNL     1      -1.311  -0.562   1.121  1.00  0.00     0.032 A 
HETATM    8  C8  UNL     1      -2.303  -0.337   0.225  1.00  0.00     0.125 A 
HETATM    9  O2  UNL     1      -1.810   0.061  -0.995  1.00  0.00    -0.287 OA
ENDROOT
BRANCH   1  10
HETATM   10  C11 UNL     1       3.641   0.203   0.271  1.00  0.00     0.103 C 
HETATM   11  C13 UNL     1       4.532  -0.318  -0.612  1.00  0.00     0.093 C 
BRANCH  10  12
HETATM   12  O5  UNL     1       4.037   0.536   1.538  1.00  0.00    -0.328 OA
HETATM   13  C12 UNL     1       3.925   1.908   1.830  1.00  0.00     0.181 C 
ENDBRANCH  10  12
BRANCH  11  14
HETATM   14  C14 UNL     1       6.005  -0.390  -0.390  1.00  0.00     0.298 C 
HETATM   15  O6  UNL     1       6.665  -0.892  -1.295  1.00  0.00    -0.259 OA
BRANCH  14  16
HETATM   16  O7  UNL     1       6.625   0.166   0.691  1.00  0.00    -0.296 OA
HETATM   17  C15 UNL     1       8.025   0.308   0.626  1.00  0.00     0.185 C 
ENDBRANCH  14  16
ENDBRANCH  11  14
ENDBRANCH   1  10
BRANCH   2  18
HETATM   18  C9  UNL     1       2.714   1.131  -2.382  1.00  0.00     0.314 C 
HETATM   19  O3  UNL     1       3.397   2.052  -1.954  1.00  0.00    -0.257 OA
BRANCH  18  20
HETATM   20  O4  UNL     1       2.842   0.750  -3.691  1.00  0.00    -0.295 OA
HETATM   21  C10 UNL     1       2.086  -0.348  -4.139  1.00  0.00     0.185 C 
ENDBRANCH  18  20
ENDBRANCH   2  18
BRANCH   6  22
HETATM   22  O1  UNL     1       1.539  -0.671   2.142  1.00  0.00    -0.328 OA
HETATM   23  C6  UNL     1       1.962  -2.002   2.329  1.00  0.00     0.181 C 
ENDBRANCH   6  22
TORSDOF 7
