REMARK  1 active torsions:
REMARK  status: ('A' for Active; 'I' for Inactive)
REMARK    1  A    between atoms: C10_10  and  C13_13 
ROOT
HETATM    1  C1  UNL     1       2.043   0.252  -1.829  1.00  0.00     0.021 C 
HETATM    2  C2  UNL     1       2.712  -0.968  -1.173  1.00  0.00     0.032 C 
HETATM    3  C3  UNL     1       2.452  -1.398   0.290  1.00  0.00     0.003 C 
HETATM    4  C4  UNL     1       1.313  -0.900   1.222  1.00  0.00     0.003 C 
HETATM    5  C5  UNL     1       0.714   0.509   1.001  1.00  0.00     0.028 C 
HETATM    6  C6  UNL     1       1.688   1.670   1.238  1.00  0.00     0.007 C 
HETATM    7  C7  UNL     1       2.817   1.746   0.196  1.00  0.00     0.022 C 
HETATM    8  C8  UNL     1       2.320   1.623  -1.232  1.00  0.00    -0.044 C 
HETATM    9  C9  UNL     1       2.035   2.737  -1.928  1.00  0.00    -0.009 C 
HETATM   10  C10 UNL     1      -0.654   0.551   1.718  1.00  0.00     0.127 C 
HETATM   11  C11 UNL     1      -1.039  -0.938   1.851  1.00  0.00     0.030 C 
HETATM   12  C12 UNL     1       0.027  -1.736   1.082  1.00  0.00     0.003 C 
HETATM   13  O1  UNL     1      -0.478   1.109   2.993  1.00  0.00    -0.226 OA
HETATM   14  C16 UNL     1       1.837  -1.088   2.673  1.00  0.00     0.000 C 
HETATM   15  C17 UNL     1       2.546  -2.079  -2.227  1.00  0.00     0.127 C 
HETATM   16  C18 UNL     1       2.786  -1.355  -3.559  1.00  0.00     0.031 C 
HETATM   17  C19 UNL     1       2.506   0.136  -3.299  1.00  0.00     0.007 C 
HETATM   18  C20 UNL     1       1.189  -2.783  -2.223  1.00  0.00     0.033 C 
HETATM   19  O2  UNL     1       3.536  -3.059  -2.045  1.00  0.00    -0.226 OA
ENDROOT
BRANCH  10  20
HETATM   20  C13 UNL     1      -1.778   1.332   0.997  1.00  0.00     0.028 C 
HETATM   21  C14 UNL     1      -3.056   1.434   1.857  1.00  0.00     0.003 C 
HETATM   22  C15 UNL     1      -1.399   2.750   0.533  1.00  0.00     0.003 C 
ENDBRANCH  10  20
TORSDOF 1
