REMARK  1 active torsions:
REMARK  status: ('A' for Active; 'I' for Inactive)
REMARK    1  A    between atoms: C13_16  and  C16_21 
ROOT
HETATM    1  C1  UNL     1      -1.878   0.334  -1.692  1.00  0.00     0.001 C 
HETATM    2  C2  UNL     1      -1.501  -0.993  -2.376  1.00  0.00     0.000 C 
HETATM    3  C3  UNL     1      -0.403  -1.788  -1.621  1.00  0.00     0.004 C 
HETATM    4  C4  UNL     1      -0.867  -1.865  -0.147  1.00  0.00     0.048 C 
HETATM    5  C5  UNL     1      -1.145  -0.528   0.558  1.00  0.00     0.102 C 
HETATM    6  C6  UNL     1      -2.297   0.118  -0.228  1.00  0.00     0.014 C 
HETATM    7  C7  UNL     1       0.142   0.256   0.795  1.00  0.00     0.017 C 
HETATM    8  C8  UNL     1       1.342  -0.457   0.987  1.00  0.00     0.035 C 
HETATM    9  C9  UNL     1       1.312  -1.939   1.062  1.00  0.00     0.200 C 
HETATM   10  C10 UNL     1      -0.083  -2.538   0.966  1.00  0.00     0.186 C 
HETATM   11  O1  UNL     1      -0.821  -2.214   2.132  1.00  0.00    -0.296 OA
HETATM   12  C11 UNL     1      -1.513  -1.054   1.933  1.00  0.00     0.275 C 
HETATM   13  O2  UNL     1      -2.253  -0.510   2.722  1.00  0.00    -0.264 OA
HETATM   14  O3  UNL     1       2.301  -2.645   1.222  1.00  0.00    -0.289 OA
HETATM   15  C12 UNL     1       2.571   0.202   1.058  1.00  0.00     0.001 C 
HETATM   16  C13 UNL     1       2.638   1.596   1.004  1.00  0.00     0.005 C 
HETATM   17  C14 UNL     1       1.438   2.318   0.975  1.00  0.00     0.152 C 
HETATM   18  C15 UNL     1       0.203   1.653   0.881  1.00  0.00     0.152 C 
HETATM   19  O4  UNL     1      -0.922   2.411   0.925  1.00  0.00    -0.188 OA
HETATM   20  O5  UNL     1       1.431   3.679   1.013  1.00  0.00    -0.188 OA
HETATM   21  C19 UNL     1      -0.325  -3.223  -2.191  1.00  0.00     0.000 C 
HETATM   22  C20 UNL     1       0.960  -1.127  -1.911  1.00  0.00     0.000 C 
ENDROOT
BRANCH  16  23
HETATM   23  C16 UNL     1       3.988   2.294   1.006  1.00  0.00     0.024 C 
HETATM   24  C17 UNL     1       4.771   2.015   2.299  1.00  0.00     0.005 C 
HETATM   25  C18 UNL     1       4.801   1.894  -0.237  1.00  0.00     0.005 C 
ENDBRANCH  16  23
TORSDOF 1
