REMARK  4 active torsions:
REMARK  status: ('A' for Active; 'I' for Inactive)
REMARK    1  A    between atoms: C3_3  and  C30_32 
REMARK    2  A    between atoms: C16_17  and  C25_26 
REMARK    3  A    between atoms: C30_32  and  O3_33 
REMARK    4  A    between atoms: O3_33  and  C31_34 
ROOT
HETATM    1  C1  UNL     1      -2.190  -0.814  -2.475  1.00  0.00     0.183 C 
HETATM    2  C2  UNL     1      -2.297  -2.326  -2.444  1.00  0.00     0.191 C 
HETATM    3  C3  UNL     1      -1.192  -2.956  -1.579  1.00  0.00     0.111 C 
HETATM    4  C4  UNL     1      -1.243  -2.402  -0.107  1.00  0.00     0.042 C 
HETATM    5  C5  UNL     1      -1.272  -0.850   0.007  1.00  0.00     0.006 C 
HETATM    6  C6  UNL     1      -2.243  -0.241  -1.067  1.00  0.00     0.036 C 
HETATM    7  C7  UNL     1       0.205  -0.327  -0.207  1.00  0.00     0.005 C 
HETATM    8  C8  UNL     1       1.496  -0.989   0.498  1.00  0.00     0.006 C 
HETATM    9  C9  UNL     1       1.200  -2.483   0.991  1.00  0.00     0.033 C 
HETATM   10  C10 UNL     1      -0.247  -3.020   0.906  1.00  0.00     0.153 C 
HETATM   11  O1  UNL     1      -0.794  -3.004   2.207  1.00  0.00    -0.223 OA
HETATM   12  C11 UNL     1       3.189  -0.593  -0.248  1.00  0.00     0.018 C 
HETATM   13  C12 UNL     1       2.949   1.027   0.191  1.00  0.00    -0.035 C 
HETATM   14  C13 UNL     1       1.756   1.674   0.116  1.00  0.00    -0.031 C 
HETATM   15  C14 UNL     1       0.355   1.201  -0.198  1.00  0.00     0.026 C 
HETATM   16  C15 UNL     1       4.029   1.917   0.905  1.00  0.00    -0.047 C 
HETATM   17  C16 UNL     1       4.680   1.354   2.203  1.00  0.00     0.045 C 
HETATM   18  C17 UNL     1       4.993  -0.147   1.991  1.00  0.00     0.007 C 
HETATM   19  C18 UNL     1       3.881  -0.919   1.241  1.00  0.00     0.004 C 
HETATM   20  C19 UNL     1       6.003   2.121   2.480  1.00  0.00     0.006 C 
HETATM   21  C20 UNL     1       5.807   3.636   2.635  1.00  0.00     0.001 C 
HETATM   22  C21 UNL     1       5.068   4.269   1.438  1.00  0.00     0.004 C 
HETATM   23  C22 UNL     1       3.802   3.449   1.074  1.00  0.00     0.022 C 
HETATM   24  C23 UNL     1       4.637   5.704   1.825  1.00  0.00     0.000 C 
HETATM   25  C24 UNL     1       6.026   4.398   0.231  1.00  0.00     0.000 C 
HETATM   26  C26 UNL     1       4.007  -1.315  -2.023  1.00  0.00     0.004 C 
HETATM   27  C27 UNL     1       1.165  -0.342   1.944  1.00  0.00     0.000 C 
HETATM   28  C28 UNL     1      -2.031  -0.418   1.306  1.00  0.00     0.000 C 
HETATM   29  C29 UNL     1      -1.340  -4.493  -1.635  1.00  0.00     0.013 C 
HETATM   30  O9  UNL     1      -3.576  -2.667  -1.964  1.00  0.00    -0.220 OA
HETATM   31  O10 UNL     1      -3.287  -0.336  -3.221  1.00  0.00    -0.221 OA
ENDROOT
BRANCH   3  32
HETATM   32  C30 UNL     1       0.114  -2.631  -2.305  1.00  0.00     0.276 C 
HETATM   33  O8  UNL     1       0.252  -2.299  -3.460  1.00  0.00    -0.264 OA
BRANCH  32  34
HETATM   34  O3  UNL     1       1.109  -2.629  -1.402  1.00  0.00    -0.273 OA
BRANCH  34  35
HETATM   35  C31 UNL     1       2.336  -2.030  -1.690  1.00  0.00     0.281 C 
HETATM   36  O4  UNL     1       3.545  -2.589  -0.638  1.00  0.00    -0.321 OA
HETATM   37  C32 UNL     1       5.063  -1.839  -0.500  1.00  0.00     0.201 C 
HETATM   38  C33 UNL     1       5.289  -0.124  -1.064  1.00  0.00     0.162 C 
HETATM   39  C34 UNL     1       3.979   0.651  -2.041  1.00  0.00     0.167 C 
HETATM   40  O7  UNL     1       6.206   0.665  -0.352  1.00  0.00    -0.190 OA
HETATM   41  C35 UNL     1       2.393  -0.240  -2.204  1.00  0.00     0.258 C 
HETATM   42  O6  UNL     1       3.834   2.047  -1.919  1.00  0.00    -0.190 OA
HETATM   43  O5  UNL     1       1.935  -0.148  -3.548  1.00  0.00    -0.211 OA
ENDBRANCH  34  35
ENDBRANCH  32  34
ENDBRANCH   3  32
BRANCH  17  44
HETATM   44  C25 UNL     1       3.789   1.531   3.457  1.00  0.00     0.186 C 
HETATM   45  O2  UNL     1       4.447   1.124   4.642  1.00  0.00    -0.220 OA
ENDBRANCH  17  44
TORSDOF 4
