REMARK  2 active torsions:
REMARK  status: ('A' for Active; 'I' for Inactive)
REMARK    1  A    between atoms: C8_10  and  C10_12 
REMARK    2  A    between atoms: C13_15  and  O4_24 
ROOT
HETATM    1  C10 UNL     1       3.504   0.312   0.386  1.00  0.00     0.003 A 
HETATM    2  C11 UNL     1       4.874   0.342   0.658  1.00  0.00    -0.000 A 
HETATM    3  C12 UNL     1       5.823   0.425  -0.361  1.00  0.00     0.024 A 
HETATM    4  C13 UNL     1       5.446   0.512  -1.703  1.00  0.00     0.096 A 
HETATM    5  C14 UNL     1       4.058   0.462  -1.959  1.00  0.00     0.044 A 
HETATM    6  C15 UNL     1       3.077   0.351  -0.957  1.00  0.00     0.092 A 
HETATM    7  O3  UNL     1       1.737   0.294  -1.223  1.00  0.00    -0.332 OA
HETATM    8  C16 UNL     1       1.233   0.458  -2.521  1.00  0.00     0.117 C 
HETATM    9  C17 UNL     1       2.279   0.499  -3.603  1.00  0.00     0.001 C 
HETATM   10  C18 UNL     1       3.596   0.508  -3.346  1.00  0.00     0.002 C 
HETATM   11  C19 UNL     1       0.291  -0.725  -2.790  1.00  0.00     0.035 C 
HETATM   12  C20 UNL     1       0.437   1.769  -2.550  1.00  0.00     0.035 C 
ENDROOT
BRANCH   1  13
HETATM   13  C8  UNL     1       2.524   0.217   1.550  1.00  0.00     0.059 C 
HETATM   14  C7  UNL     1       1.540   1.385   1.622  1.00  0.00     0.153 C 
HETATM   15  O2  UNL     1       0.836   1.351   2.835  1.00  0.00    -0.331 OA
HETATM   16  C4  UNL     1       0.209   0.167   3.116  1.00  0.00     0.092 A 
HETATM   17  C3  UNL     1       0.586  -1.049   2.525  1.00  0.00     0.001 A 
HETATM   18  C5  UNL     1      -0.927   0.161   3.937  1.00  0.00     0.051 A 
HETATM   19  C2  UNL     1      -0.126  -2.218   2.813  1.00  0.00    -0.000 A 
HETATM   20  C9  UNL     1       1.756  -1.112   1.574  1.00  0.00     0.035 C 
HETATM   21  C1  UNL     1      -1.235  -2.192   3.658  1.00  0.00     0.027 A 
HETATM   22  C6  UNL     1      -1.659  -0.993   4.233  1.00  0.00     0.133 A 
HETATM   23  O1  UNL     1      -2.758  -0.956   5.032  1.00  0.00    -0.190 OA
ENDBRANCH   1  13
BRANCH   4  24
HETATM   24  O4  UNL     1       6.330   0.576  -2.753  1.00  0.00    -0.328 OA
HETATM   25  C21 UNL     1       7.701   0.385  -2.496  1.00  0.00     0.181 C 
ENDBRANCH   4  24
TORSDOF 2
