REMARK  7 active torsions:
REMARK  status: ('A' for Active; 'I' for Inactive)
REMARK    1  A    between atoms: C16_16  and  C21_23 
REMARK    2  A    between atoms: C18_18  and  O1_19 
REMARK    3  A    between atoms: O1_19  and  C19_20 
REMARK    4  A    between atoms: C21_23  and  C23_25 
REMARK    5  A    between atoms: C23_25  and  C24_26 
REMARK    6  A    between atoms: C24_26  and  C25_27 
REMARK    7  A    between atoms: C26_28  and  C28_30 
ROOT
HETATM    1  C1  UNL     1      -1.849  -0.347  -2.053  1.00  0.00     0.033 C 
HETATM    2  C2  UNL     1      -2.211  -1.652  -1.359  1.00  0.00     0.152 C 
HETATM    3  C3  UNL     1      -1.027  -2.640  -1.348  1.00  0.00     0.029 C 
HETATM    4  C4  UNL     1       0.327  -1.872  -1.194  1.00  0.00     0.010 C 
HETATM    5  C5  UNL     1       0.264  -0.477  -0.522  1.00  0.00     0.019 C 
HETATM    6  C6  UNL     1      -0.743   0.409  -1.302  1.00  0.00     0.007 C 
HETATM    7  C7  UNL     1       1.657   0.168  -0.510  1.00  0.00    -0.031 C 
HETATM    8  C8  UNL     1       2.874  -0.667  -0.519  1.00  0.00    -0.029 C 
HETATM    9  C9  UNL     1       2.762  -2.009  -0.565  1.00  0.00    -0.031 C 
HETATM   10  C10 UNL     1       1.452  -2.738  -0.605  1.00  0.00     0.026 C 
HETATM   11  C11 UNL     1       4.229   0.017  -0.536  1.00  0.00     0.044 C 
HETATM   12  C12 UNL     1       4.177   1.264   0.401  1.00  0.00     0.010 C 
HETATM   13  C13 UNL     1       3.130   2.220  -0.198  1.00  0.00     0.026 C 
HETATM   14  C14 UNL     1       1.810   1.506  -0.376  1.00  0.00    -0.031 C 
HETATM   15  C15 UNL     1       3.735   0.910   1.846  1.00  0.00     0.001 C 
HETATM   16  C16 UNL     1       5.658   1.729   0.422  1.00  0.00     0.003 C 
HETATM   17  C17 UNL     1       6.408   0.374   0.447  1.00  0.00     0.031 C 
HETATM   18  C18 UNL     1       5.423  -0.738   0.060  1.00  0.00     0.128 C 
HETATM   19  C29 UNL     1       4.504   0.312  -2.033  1.00  0.00     0.007 C 
HETATM   20  C30 UNL     1      -0.115  -0.554   0.976  1.00  0.00     0.004 C 
HETATM   21  C31 UNL     1      -1.274  -3.674  -0.225  1.00  0.00     0.003 C 
HETATM   22  C32 UNL     1      -0.985  -3.442  -2.676  1.00  0.00     0.003 C 
HETATM   23  O5  UNL     1      -3.342  -2.211  -1.987  1.00  0.00    -0.224 OA
ENDROOT
BRANCH  16  24
HETATM   24  C21 UNL     1       6.163   2.734   1.492  1.00  0.00     0.000 C 
HETATM   25  C22 UNL     1       5.334   4.036   1.492  1.00  0.00     0.000 C 
BRANCH  24  26
HETATM   26  C23 UNL     1       7.654   3.134   1.316  1.00  0.00     0.005 C 
BRANCH  26  27
HETATM   27  C24 UNL     1       8.695   2.148   1.877  1.00  0.00     0.026 C 
BRANCH  27  28
HETATM   28  C25 UNL     1      10.102   2.701   1.888  1.00  0.00    -0.024 C 
HETATM   29  C26 UNL     1      11.233   1.962   1.859  1.00  0.00     0.038 C 
HETATM   30  C27 UNL     1      11.253   0.452   1.829  1.00  0.00     0.037 C 
BRANCH  29  31
HETATM   31  C28 UNL     1      12.543   2.672   1.865  1.00  0.00     0.206 C 
HETATM   32  O3  UNL     1      12.664   4.015   1.923  1.00  0.00    -0.644 OA
HETATM   33  O4  UNL     1      13.585   2.031   1.814  1.00  0.00    -0.644 OA
ENDBRANCH  29  31
ENDBRANCH  27  28
ENDBRANCH  26  27
ENDBRANCH  24  26
ENDBRANCH  16  24
BRANCH  18  34
HETATM   34  O1  UNL     1       5.992  -1.648  -0.834  1.00  0.00    -0.304 OA
BRANCH  34  35
HETATM   35  C19 UNL     1       6.812  -2.598  -0.309  1.00  0.00     0.272 C 
HETATM   36  C20 UNL     1       7.256  -3.563  -1.389  1.00  0.00     0.106 C 
HETATM   37  O2  UNL     1       7.128  -2.680   0.857  1.00  0.00    -0.264 OA
ENDBRANCH  34  35
ENDBRANCH  18  34
TORSDOF 7
