REMARK  8 active torsions:
REMARK  status: ('A' for Active; 'I' for Inactive)
REMARK    1  A    between atoms: C13_14  and  O3_17 
REMARK    2  A    between atoms: O3_17  and  C15_18 
REMARK    3  A    between atoms: C17_21  and  C20_25 
REMARK    4  A    between atoms: C20_25  and  C21_26 
REMARK    5  A    between atoms: C21_26  and  C22_27 
REMARK    6  A    between atoms: C22_27  and  C23_28 
REMARK    7  A    between atoms: C23_28  and  C24_29 
REMARK    8  A    between atoms: C24_29  and  C26_31 
ROOT
HETATM    1  C1  UNL     1      -2.149  -1.365   0.203  1.00  0.00     0.033 C 
HETATM    2  C2  UNL     1      -2.061  -2.740  -0.442  1.00  0.00     0.152 C 
HETATM    3  C3  UNL     1      -0.825  -3.537   0.014  1.00  0.00     0.029 C 
HETATM    4  C4  UNL     1       0.443  -2.640  -0.160  1.00  0.00     0.014 C 
HETATM    5  C5  UNL     1       0.427  -1.182   0.382  1.00  0.00     0.022 C 
HETATM    6  C6  UNL     1      -0.895  -0.534  -0.095  1.00  0.00     0.007 C 
HETATM    7  C7  UNL     1       1.691  -0.436  -0.104  1.00  0.00     0.013 C 
HETATM    8  C8  UNL     1       2.870  -1.076  -0.330  1.00  0.00     0.013 C 
HETATM    9  C9  UNL     1       2.948  -2.561  -0.246  1.00  0.00     0.169 C 
HETATM   10  C10 UNL     1       1.746  -3.336   0.241  1.00  0.00     0.069 C 
HETATM   11  O1  UNL     1       3.948  -3.186  -0.569  1.00  0.00    -0.292 OA
HETATM   12  C11 UNL     1       4.105  -0.286  -0.742  1.00  0.00     0.052 C 
HETATM   13  C12 UNL     1       4.198   1.034   0.099  1.00  0.00     0.039 C 
HETATM   14  C13 UNL     1       2.993   1.864  -0.371  1.00  0.00     0.185 C 
HETATM   15  C14 UNL     1       1.692   1.061  -0.227  1.00  0.00     0.196 C 
HETATM   16  O2  UNL     1       0.669   1.729  -0.187  1.00  0.00    -0.289 OA
HETATM   17  C17 UNL     1       5.624   1.574  -0.222  1.00  0.00     0.006 C 
HETATM   18  C18 UNL     1       6.443   0.278  -0.441  1.00  0.00     0.033 C 
HETATM   19  C19 UNL     1       5.487  -0.910  -0.522  1.00  0.00     0.156 C 
HETATM   20  O5  UNL     1       5.517  -1.657   0.672  1.00  0.00    -0.223 OA
HETATM   21  C28 UNL     1       4.085   0.794   1.625  1.00  0.00     0.003 C 
HETATM   22  C29 UNL     1       3.971  -0.120  -2.281  1.00  0.00     0.007 C 
HETATM   23  C30 UNL     1       0.514  -1.053   1.921  1.00  0.00     0.004 C 
HETATM   24  C31 UNL     1      -0.731  -4.781  -0.914  1.00  0.00     0.003 C 
HETATM   25  C32 UNL     1      -0.998  -4.092   1.445  1.00  0.00     0.003 C 
HETATM   26  O9  UNL     1      -3.255  -3.439  -0.172  1.00  0.00    -0.224 OA
ENDROOT
BRANCH  17  27
HETATM   27  C20 UNL     1       6.407   2.530   0.730  1.00  0.00     0.007 C 
HETATM   28  C27 UNL     1       5.699   3.865   1.029  1.00  0.00     0.000 C 
BRANCH  27  29
HETATM   29  C21 UNL     1       7.811   2.866   0.156  1.00  0.00     0.065 C 
BRANCH  29  30
HETATM   30  C22 UNL     1       8.970   1.979   0.591  1.00  0.00     0.151 C 
HETATM   31  O8  UNL     1       8.912   1.265   1.566  1.00  0.00    -0.296 OA
BRANCH  30  32
HETATM   32  C23 UNL     1      10.260   2.078  -0.212  1.00  0.00     0.075 C 
BRANCH  32  33
HETATM   33  C24 UNL     1      11.103   0.788  -0.223  1.00  0.00     0.095 C 
HETATM   34  C25 UNL     1      10.371  -0.342  -0.967  1.00  0.00     0.012 C 
BRANCH  33  35
HETATM   35  C26 UNL     1      12.463   1.062  -0.851  1.00  0.00     0.185 C 
HETATM   36  O6  UNL     1      13.323   1.598   0.035  1.00  0.00    -0.647 OA
HETATM   37  O7  UNL     1      12.789   0.844  -1.993  1.00  0.00    -0.647 OA
ENDBRANCH  33  35
ENDBRANCH  32  33
ENDBRANCH  30  32
ENDBRANCH  29  30
ENDBRANCH  27  29
ENDBRANCH  17  27
BRANCH  14  38
HETATM   38  O3  UNL     1       2.893   3.082   0.330  1.00  0.00    -0.296 OA
BRANCH  38  39
HETATM   39  C15 UNL     1       2.361   4.163  -0.309  1.00  0.00     0.273 C 
HETATM   40  C16 UNL     1       2.188   5.316   0.658  1.00  0.00     0.106 C 
HETATM   41  O4  UNL     1       2.059   4.204  -1.480  1.00  0.00    -0.264 OA
ENDBRANCH  38  39
ENDBRANCH  14  38
TORSDOF 8
