REMARK  6 active torsions:
REMARK  status: ('A' for Active; 'I' for Inactive)
REMARK    1  A    between atoms: C16_19  and  C19_23 
REMARK    2  A    between atoms: C19_23  and  C21_25 
REMARK    3  A    between atoms: C21_25  and  C22_26 
REMARK    4  A    between atoms: C22_26  and  C23_27 
REMARK    5  A    between atoms: C23_27  and  C24_28 
REMARK    6  A    between atoms: C24_28  and  C25_29 
ROOT
HETATM    1  C1  UNL     1      -2.543  -1.692  -0.050  1.00  0.00     0.065 C 
HETATM    2  C2  UNL     1      -2.397  -3.128  -0.501  1.00  0.00     0.150 C 
HETATM    3  C3  UNL     1      -1.112  -3.869  -0.131  1.00  0.00     0.052 C 
HETATM    4  C4  UNL     1       0.117  -2.925  -0.271  1.00  0.00     0.013 C 
HETATM    5  C5  UNL     1       0.007  -1.454   0.228  1.00  0.00     0.022 C 
HETATM    6  C6  UNL     1      -1.292  -0.869  -0.371  1.00  0.00     0.012 C 
HETATM    7  C7  UNL     1       1.264  -0.689  -0.218  1.00  0.00     0.009 C 
HETATM    8  C8  UNL     1       2.451  -1.307  -0.440  1.00  0.00    -0.009 C 
HETATM    9  C9  UNL     1       2.631  -2.802  -0.325  1.00  0.00     0.171 C 
HETATM   10  C10 UNL     1       1.425  -3.541   0.241  1.00  0.00     0.038 C 
HETATM   11  O1  UNL     1       3.741  -3.115   0.500  1.00  0.00    -0.219 OA
HETATM   12  C11 UNL     1       3.629  -0.475  -0.918  1.00  0.00     0.071 C 
HETATM   13  C12 UNL     1       3.782   0.759   0.023  1.00  0.00     0.045 C 
HETATM   14  C13 UNL     1       2.554   1.610  -0.310  1.00  0.00     0.213 C 
HETATM   15  C14 UNL     1       1.260   0.803  -0.295  1.00  0.00     0.199 C 
HETATM   16  O2  UNL     1       0.269   1.518  -0.222  1.00  0.00    -0.289 OA
HETATM   17  O3  UNL     1       2.328   2.667   0.602  1.00  0.00    -0.215 OA
HETATM   18  C15 UNL     1       3.759   0.336   1.512  1.00  0.00     0.004 C 
HETATM   19  C16 UNL     1       5.191   1.323  -0.326  1.00  0.00     0.011 C 
HETATM   20  C17 UNL     1       6.024   0.035  -0.522  1.00  0.00     0.065 C 
HETATM   21  C18 UNL     1       5.040  -1.044  -0.917  1.00  0.00     0.153 C 
HETATM   22  O4  UNL     1       5.353  -2.158  -1.265  1.00  0.00    -0.296 OA
HETATM   23  C27 UNL     1       3.382  -0.204  -2.425  1.00  0.00     0.012 C 
HETATM   24  C28 UNL     1      -0.013  -1.262   1.762  1.00  0.00     0.004 C 
HETATM   25  C29 UNL     1      -0.984  -5.068  -1.109  1.00  0.00     0.007 C 
HETATM   26  C30 UNL     1      -1.306  -4.466   1.277  1.00  0.00     0.007 C 
HETATM   27  O8  UNL     1      -3.311  -3.666  -1.087  1.00  0.00    -0.296 OA
ENDROOT
BRANCH  19  28
HETATM   28  C19 UNL     1       5.939   2.315   0.605  1.00  0.00     0.008 C 
HETATM   29  C20 UNL     1       5.142   3.596   0.909  1.00  0.00     0.001 C 
BRANCH  28  30
HETATM   30  C21 UNL     1       7.306   2.731  -0.002  1.00  0.00     0.065 C 
BRANCH  30  31
HETATM   31  C22 UNL     1       8.524   1.924   0.421  1.00  0.00     0.151 C 
HETATM   32  O7  UNL     1       8.446   1.052   1.258  1.00  0.00    -0.296 OA
BRANCH  31  33
HETATM   33  C23 UNL     1       9.864   2.205  -0.251  1.00  0.00     0.075 C 
BRANCH  33  34
HETATM   34  C24 UNL     1      10.324   3.677  -0.351  1.00  0.00     0.095 C 
HETATM   35  C26 UNL     1       9.804   4.380  -1.619  1.00  0.00     0.012 C 
BRANCH  34  36
HETATM   36  C25 UNL     1      10.069   4.505   0.900  1.00  0.00     0.185 C 
HETATM   37  O5  UNL     1       9.708   5.657   0.937  1.00  0.00    -0.647 OA
HETATM   38  O6  UNL     1      10.310   3.813   2.026  1.00  0.00    -0.647 OA
ENDBRANCH  34  36
ENDBRANCH  33  34
ENDBRANCH  31  33
ENDBRANCH  30  31
ENDBRANCH  28  30
ENDBRANCH  19  28
TORSDOF 6
