REMARK  3 active torsions:
REMARK  status: ('A' for Active; 'I' for Inactive)
REMARK    1  A    between atoms: C12_13  and  C16_19 
REMARK    2  A    between atoms: C13_14  and  O2_15 
REMARK    3  A    between atoms: O2_15  and  C14_16 
ROOT
HETATM    1  C1  UNL     1       3.087   0.473   1.185  1.00  0.00     0.150 C 
HETATM    2  C2  UNL     1       3.154  -1.044   1.311  1.00  0.00     0.161 C 
HETATM    3  C3  UNL     1       4.588  -1.547   1.151  1.00  0.00     0.097 C 
HETATM    4  C4  UNL     1       5.493  -0.834   2.153  1.00  0.00     0.153 C 
HETATM    5  C5  UNL     1       5.316   0.673   2.351  1.00  0.00     0.060 C 
HETATM    6  C6  UNL     1       3.845   1.142   2.323  1.00  0.00     0.040 C 
HETATM    7  C7  UNL     1       6.016   1.185   3.620  1.00  0.00     0.008 C 
HETATM    8  O1  UNL     1       6.383  -1.440   2.707  1.00  0.00    -0.296 OA
HETATM    9  C8  UNL     1       2.062  -1.433   0.289  1.00  0.00     0.064 C 
HETATM   10  C9  UNL     1       0.874  -0.547   0.737  1.00  0.00     0.185 C 
HETATM   11  C10 UNL     1       1.604   0.775   0.953  1.00  0.00     0.186 C 
HETATM   12  C11 UNL     1       1.524   1.420  -0.441  1.00  0.00     0.108 C 
HETATM   13  C12 UNL     1       0.098   1.086  -0.944  1.00  0.00     0.161 C 
HETATM   14  C13 UNL     1      -0.264  -0.234  -0.229  1.00  0.00     0.182 C 
HETATM   15  O4  UNL     1      -0.737   2.062  -0.363  1.00  0.00    -0.223 OA
HETATM   16  C19 UNL     1       2.702   0.609  -0.986  1.00  0.00     0.224 C 
HETATM   17  O5  UNL     1       3.695   0.814  -0.026  1.00  0.00    -0.332 OA
HETATM   18  C20 UNL     1       2.494  -0.898  -1.100  1.00  0.00     0.064 C 
HETATM   19  O6  UNL     1       3.279   1.152  -2.145  1.00  0.00    -0.195 OA
HETATM   20  C21 UNL     1       1.852   2.932  -0.358  1.00  0.00     0.010 C 
HETATM   21  O7  UNL     1       0.978   1.534   1.942  1.00  0.00    -0.221 OA
HETATM   22  O8  UNL     1       0.312  -1.007   1.935  1.00  0.00    -0.221 OA
HETATM   23  C22 UNL     1       1.814  -2.946   0.271  1.00  0.00     0.005 C 
HETATM   24  O9  UNL     1       2.795  -1.444   2.610  1.00  0.00    -0.223 OA
ENDROOT
BRANCH  13  25
HETATM   25  C16 UNL     1      -0.181   1.116  -2.463  1.00  0.00     0.031 C 
HETATM   26  C17 UNL     1      -1.687   0.984  -2.790  1.00  0.00     0.003 C 
HETATM   27  C18 UNL     1       0.309   2.375  -3.202  1.00  0.00     0.003 C 
ENDBRANCH  13  25
BRANCH  14  28
HETATM   28  O2  UNL     1      -0.524  -1.316  -1.075  1.00  0.00    -0.299 OA
BRANCH  28  29
HETATM   29  C14 UNL     1      -1.636  -2.075  -0.862  1.00  0.00     0.273 C 
HETATM   30  C15 UNL     1      -1.702  -3.204  -1.871  1.00  0.00     0.106 C 
HETATM   31  O3  UNL     1      -2.468  -1.875  -0.006  1.00  0.00    -0.264 OA
ENDBRANCH  28  29
ENDBRANCH  14  28
TORSDOF 3
