REMARK  4 active torsions:
REMARK  status: ('A' for Active; 'I' for Inactive)
REMARK    1  A    between atoms: C3_3  and  C7_8 
REMARK    2  A    between atoms: C9_10  and  O3_20 
REMARK    3  A    between atoms: C10_11  and  C13_15 
REMARK    4  A    between atoms: C13_15  and  C14_16 
ROOT
HETATM    1  C7  UNL     1       0.350   1.698  -0.451  1.00  0.00     0.004 A 
HETATM    2  C8  UNL     1      -0.361   0.532  -0.141  1.00  0.00     0.024 A 
HETATM    3  C9  UNL     1       0.190  -0.717   0.193  1.00  0.00     0.096 A 
HETATM    4  C10 UNL     1       1.607  -0.829   0.219  1.00  0.00     0.048 A 
HETATM    5  C11 UNL     1       2.362   0.323  -0.084  1.00  0.00     0.133 A 
HETATM    6  C12 UNL     1       1.736   1.530  -0.404  1.00  0.00     0.028 A 
HETATM    7  O2  UNL     1       3.720   0.356  -0.090  1.00  0.00    -0.190 OA
ENDROOT
BRANCH   1   8
HETATM    8  C3  UNL     1      -0.296   2.991  -0.795  1.00  0.00     0.000 A 
HETATM    9  C2  UNL     1       0.449   4.144  -1.105  1.00  0.00     0.002 A 
HETATM   10  C1  UNL     1      -0.155   5.360  -1.428  1.00  0.00     0.027 A 
HETATM   11  C6  UNL     1      -1.543   5.499  -1.464  1.00  0.00     0.131 A 
HETATM   12  C5  UNL     1      -2.298   4.365  -1.160  1.00  0.00     0.027 A 
HETATM   13  O1  UNL     1      -2.122   6.687  -1.781  1.00  0.00    -0.190 OA
HETATM   14  C4  UNL     1      -1.694   3.149  -0.836  1.00  0.00     0.002 A 
ENDBRANCH   1   8
BRANCH   3  15
HETATM   15  O3  UNL     1      -0.784  -1.663   0.446  1.00  0.00    -0.328 OA
HETATM   16  C18 UNL     1      -0.538  -3.002   0.786  1.00  0.00     0.181 C 
ENDBRANCH   3  15
BRANCH   4  17
HETATM   17  C13 UNL     1       2.278  -2.154   0.569  1.00  0.00     0.003 C 
BRANCH  17  18
HETATM   18  C14 UNL     1       3.765  -2.417   0.629  1.00  0.00    -0.008 C 
HETATM   19  C15 UNL     1       4.327  -3.595   0.959  1.00  0.00    -0.044 C 
HETATM   20  C16 UNL     1       5.832  -3.731   0.986  1.00  0.00     0.026 C 
HETATM   21  C17 UNL     1       3.553  -4.840   1.319  1.00  0.00     0.026 C 
ENDBRANCH  17  18
ENDBRANCH   4  17
TORSDOF 4
