REMARK  12 active torsions:
REMARK  status: ('A' for Active; 'I' for Inactive)
REMARK    1  A    between atoms: C1_1  and  C24_30 
REMARK    2  A    between atoms: C2_2  and  C17_19 
REMARK    3  A    between atoms: C3_3  and  C7_9 
REMARK    4  A    between atoms: C7_9  and  C8_10 
REMARK    5  A    between atoms: C9_11  and  C11_13 
REMARK    6  A    between atoms: C11_13  and  C12_14 
REMARK    7  A    between atoms: C12_14  and  C13_15 
REMARK    8  A    between atoms: C17_19  and  C18_21 
REMARK    9  A    between atoms: C24_30  and  C25_31 
REMARK   10  A    between atoms: C26_32  and  C28_34 
REMARK   11  A    between atoms: C28_34  and  C29_35 
REMARK   12  A    between atoms: C29_35  and  C30_36 
ROOT
HETATM    1  C1  UNL     1       4.032   1.014  -0.438  1.00  0.00     0.011 C 
HETATM    2  C2  UNL     1       4.658  -0.177   0.016  1.00  0.00     0.036 C 
HETATM    3  C3  UNL     1       3.900  -1.323   0.362  1.00  0.00     0.011 C 
HETATM    4  C4  UNL     1       2.506  -1.205   0.476  1.00  0.00     0.130 C 
HETATM    5  C5  UNL     1       1.918   0.014   0.159  1.00  0.00     0.054 C 
HETATM    6  C6  UNL     1       2.634   1.107  -0.334  1.00  0.00     0.130 C 
HETATM    7  O1  UNL     1       1.919   2.239  -0.568  1.00  0.00    -0.190 OA
HETATM    8  O2  UNL     1       1.708  -2.191   0.963  1.00  0.00    -0.190 OA
ENDROOT
BRANCH   2   9
HETATM    9  C17 UNL     1       6.141  -0.289   0.252  1.00  0.00     0.199 C 
HETATM   10  O3  UNL     1       6.562  -0.919   1.213  1.00  0.00    -0.286 OA
BRANCH   9  11
HETATM   11  C18 UNL     1       7.175   0.635  -0.345  1.00  0.00     0.090 A 
HETATM   12  C19 UNL     1       7.557   0.492  -1.681  1.00  0.00     0.138 A 
HETATM   13  C20 UNL     1       8.533   1.366  -2.170  1.00  0.00     0.055 A 
HETATM   14  O6  UNL     1       7.007  -0.459  -2.480  1.00  0.00    -0.190 OA
HETATM   15  C21 UNL     1       9.119   2.352  -1.371  1.00  0.00     0.135 A 
HETATM   16  C22 UNL     1       8.727   2.433  -0.034  1.00  0.00     0.055 A 
HETATM   17  O5  UNL     1      10.068   3.193  -1.861  1.00  0.00    -0.190 OA
HETATM   18  C23 UNL     1       7.754   1.587   0.506  1.00  0.00     0.138 A 
HETATM   19  O4  UNL     1       7.396   1.676   1.815  1.00  0.00    -0.190 OA
ENDBRANCH   9  11
ENDBRANCH   2   9
BRANCH   1  20
HETATM   20  C24 UNL     1       4.848   2.189  -0.955  1.00  0.00     0.054 C 
BRANCH  20  21
HETATM   21  C25 UNL     1       4.185   3.335  -1.674  1.00  0.00    -0.030 C 
HETATM   22  C26 UNL     1       4.571   4.623  -1.614  1.00  0.00    -0.048 C 
HETATM   23  C27 UNL     1       5.830   5.090  -0.922  1.00  0.00     0.026 C 
BRANCH  22  24
HETATM   24  C28 UNL     1       3.742   5.732  -2.232  1.00  0.00     0.026 C 
BRANCH  24  25
HETATM   25  C29 UNL     1       2.236   5.606  -1.931  1.00  0.00     0.030 C 
BRANCH  25  26
HETATM   26  C30 UNL     1       1.974   5.376  -0.461  1.00  0.00    -0.034 C 
HETATM   27  C31 UNL     1       0.833   4.908   0.074  1.00  0.00    -0.048 C 
HETATM   28  C32 UNL     1       0.712   4.644   1.557  1.00  0.00     0.026 C 
HETATM   29  C33 UNL     1      -0.410   4.598  -0.724  1.00  0.00     0.026 C 
ENDBRANCH  25  26
ENDBRANCH  24  25
ENDBRANCH  22  24
ENDBRANCH  20  21
ENDBRANCH   1  20
BRANCH   3  30
HETATM   30  C7  UNL     1       4.563  -2.659   0.688  1.00  0.00     0.054 C 
BRANCH  30  31
HETATM   31  C8  UNL     1       3.727  -3.885   0.410  1.00  0.00    -0.030 C 
HETATM   32  C9  UNL     1       3.710  -5.017   1.137  1.00  0.00    -0.048 C 
HETATM   33  C10 UNL     1       4.659  -5.294   2.279  1.00  0.00     0.026 C 
BRANCH  32  34
HETATM   34  C11 UNL     1       2.693  -6.117   0.884  1.00  0.00     0.026 C 
BRANCH  34  35
HETATM   35  C12 UNL     1       1.292  -5.574   0.553  1.00  0.00     0.030 C 
BRANCH  35  36
HETATM   36  C13 UNL     1       0.188  -6.581   0.757  1.00  0.00    -0.034 C 
HETATM   37  C14 UNL     1      -1.092  -6.279   1.042  1.00  0.00    -0.048 C 
HETATM   38  C15 UNL     1      -2.116  -7.356   1.316  1.00  0.00     0.026 C 
HETATM   39  C16 UNL     1      -1.631  -4.869   1.127  1.00  0.00     0.026 C 
ENDBRANCH  35  36
ENDBRANCH  34  35
ENDBRANCH  32  34
ENDBRANCH  30  31
ENDBRANCH   3  30
TORSDOF 12
