REMARK  1 active torsions:
REMARK  status: ('A' for Active; 'I' for Inactive)
REMARK    1  A    between atoms: C2_2  and  O6_29 
ROOT
HETATM    1  C1  UNL     1      -0.217   0.485   0.453  1.00  0.00     0.112 A 
HETATM    2  C2  UNL     1      -0.272  -0.921   0.473  1.00  0.00     0.118 A 
HETATM    3  C3  UNL     1       0.938  -1.617   0.572  1.00  0.00     0.051 A 
HETATM    4  C4  UNL     1       2.193  -1.005   0.566  1.00  0.00     0.105 A 
HETATM    5  C5  UNL     1       2.228   0.395   0.502  1.00  0.00     0.060 A 
HETATM    6  C6  UNL     1       1.029   1.140   0.459  1.00  0.00     0.007 A 
HETATM    7  C7  UNL     1       1.031   2.654   0.433  1.00  0.00     0.031 C 
HETATM    8  C8  UNL     1      -0.368   3.246   0.619  1.00  0.00     0.033 C 
HETATM    9  C9  UNL     1      -1.406   2.441  -0.157  1.00  0.00     0.099 C 
HETATM   10  O1  UNL     1      -1.416   1.145   0.343  1.00  0.00    -0.334 OA
HETATM   11  C10 UNL     1      -2.802   3.033   0.087  1.00  0.00     0.030 C 
HETATM   12  C11 UNL     1      -1.142   2.417  -1.669  1.00  0.00     0.030 C 
HETATM   13  C12 UNL     1       3.571   1.042   0.476  1.00  0.00     0.201 A 
HETATM   14  C13 UNL     1       4.761   0.147   0.434  1.00  0.00     0.087 A 
HETATM   15  C14 UNL     1       4.530  -1.237   0.510  1.00  0.00     0.107 A 
HETATM   16  O2  UNL     1       3.296  -1.800   0.642  1.00  0.00    -0.307 OA
HETATM   17  C15 UNL     1       5.636  -2.089   0.455  1.00  0.00     0.049 A 
HETATM   18  C16 UNL     1       6.955  -1.641   0.348  1.00  0.00     0.098 A 
HETATM   19  C17 UNL     1       7.135  -0.254   0.248  1.00  0.00     0.048 A 
HETATM   20  C18 UNL     1       6.069   0.661   0.320  1.00  0.00     0.138 A 
HETATM   21  O3  UNL     1       6.356   1.989   0.220  1.00  0.00    -0.190 OA
HETATM   22  C19 UNL     1       8.522   0.212   0.137  1.00  0.00     0.002 C 
HETATM   23  C20 UNL     1       9.469  -0.688  -0.178  1.00  0.00     0.001 C 
HETATM   24  C21 UNL     1       9.100  -2.118  -0.496  1.00  0.00     0.117 C 
HETATM   25  O4  UNL     1       7.986  -2.536   0.250  1.00  0.00    -0.331 OA
HETATM   26  C22 UNL     1      10.262  -3.057  -0.155  1.00  0.00     0.035 C 
HETATM   27  C23 UNL     1       8.767  -2.227  -1.990  1.00  0.00     0.035 C 
HETATM   28  O5  UNL     1       3.709   2.260   0.451  1.00  0.00    -0.286 OA
ENDROOT
BRANCH   2  29
HETATM   29  O6  UNL     1      -1.509  -1.520   0.499  1.00  0.00    -0.326 OA
HETATM   30  C24 UNL     1      -1.603  -2.853   0.947  1.00  0.00     0.181 C 
ENDBRANCH   2  29
TORSDOF 1
