REMARK  7 active torsions:
REMARK  status: ('A' for Active; 'I' for Inactive)
REMARK    1  A    between atoms: C2_2  and  O3_33 
REMARK    2  A    between atoms: C15_15  and  C18_18 
REMARK    3  A    between atoms: C18_18  and  C19_19 
REMARK    4  A    between atoms: C19_19  and  C20_20 
REMARK    5  A    between atoms: C20_20  and  C21_21 
REMARK    6  A    between atoms: C22_22  and  C24_24 
REMARK    7  A    between atoms: O3_33  and  C31_34 
ROOT
HETATM    1  C1  UNL     1       0.832  -0.096  -3.004  1.00  0.00     0.030 C 
HETATM    2  C2  UNL     1       0.043  -1.371  -2.695  1.00  0.00     0.124 C 
HETATM    3  C3  UNL     1       0.938  -2.467  -2.053  1.00  0.00     0.026 C 
HETATM    4  C4  UNL     1       2.213  -1.837  -1.420  1.00  0.00     0.002 C 
HETATM    5  C5  UNL     1       2.069  -0.459  -0.722  1.00  0.00     0.001 C 
HETATM    6  C6  UNL     1       1.559   0.535  -1.799  1.00  0.00     0.003 C 
HETATM    7  C7  UNL     1       3.421  -0.049  -0.023  1.00  0.00     0.005 C 
HETATM    8  C8  UNL     1       4.732  -0.742  -0.494  1.00  0.00     0.004 C 
HETATM    9  C9  UNL     1       4.553  -2.275  -0.667  1.00  0.00     0.000 C 
HETATM   10  C10 UNL     1       3.101  -2.767  -0.582  1.00  0.00     0.000 C 
HETATM   11  C11 UNL     1       5.841  -0.474   0.586  1.00  0.00     0.015 C 
HETATM   12  C12 UNL     1       6.052   1.011   0.765  1.00  0.00    -0.049 C 
HETATM   13  C13 UNL     1       5.039   1.873   0.594  1.00  0.00    -0.035 C 
HETATM   14  C14 UNL     1       3.636   1.466   0.207  1.00  0.00     0.025 C 
HETATM   15  C15 UNL     1       7.501   1.368   1.049  1.00  0.00     0.018 C 
HETATM   16  C16 UNL     1       8.223   0.010   0.856  1.00  0.00     0.004 C 
HETATM   17  C17 UNL     1       7.244  -0.932   0.144  1.00  0.00     0.004 C 
HETATM   18  C26 UNL     1       5.551  -1.021   2.009  1.00  0.00     0.004 C 
HETATM   19  C27 UNL     1       5.120  -0.123  -1.868  1.00  0.00     0.000 C 
HETATM   20  C28 UNL     1       1.022  -0.485   0.427  1.00  0.00     0.000 C 
HETATM   21  C29 UNL     1       1.385  -3.412  -3.209  1.00  0.00     0.002 C 
HETATM   22  C30 UNL     1       0.163  -3.369  -1.067  1.00  0.00     0.002 C 
ENDROOT
BRANCH  15  23
HETATM   23  C18 UNL     1       7.834   2.026   2.414  1.00  0.00     0.004 C 
HETATM   24  C25 UNL     1       6.776   3.033   2.905  1.00  0.00     0.000 C 
BRANCH  23  25
HETATM   25  C19 UNL     1       9.207   2.748   2.438  1.00  0.00     0.005 C 
BRANCH  25  26
HETATM   26  C20 UNL     1      10.419   1.888   2.056  1.00  0.00     0.026 C 
BRANCH  26  27
HETATM   27  C21 UNL     1      11.757   2.555   2.263  1.00  0.00    -0.024 C 
HETATM   28  C22 UNL     1      12.940   2.000   1.915  1.00  0.00     0.038 C 
HETATM   29  C23 UNL     1      13.067   0.631   1.289  1.00  0.00     0.037 C 
BRANCH  28  30
HETATM   30  C24 UNL     1      14.199   2.755   2.142  1.00  0.00     0.206 C 
HETATM   31  O1  UNL     1      15.400   2.256   1.781  1.00  0.00    -0.644 OA
HETATM   32  O2  UNL     1      14.203   3.863   2.666  1.00  0.00    -0.644 OA
ENDBRANCH  28  30
ENDBRANCH  26  27
ENDBRANCH  25  26
ENDBRANCH  23  25
ENDBRANCH  15  23
BRANCH   2  33
HETATM   33  O3  UNL     1      -1.069  -1.070  -1.905  1.00  0.00    -0.304 OA
BRANCH  33  34
HETATM   34  C31 UNL     1      -2.212  -0.648  -2.509  1.00  0.00     0.272 C 
HETATM   35  C32 UNL     1      -3.311  -0.483  -1.479  1.00  0.00     0.106 C 
HETATM   36  O4  UNL     1      -2.353  -0.451  -3.695  1.00  0.00    -0.264 OA
ENDBRANCH  33  34
ENDBRANCH   2  33
TORSDOF 7
