REMARK  2 active torsions:
REMARK  status: ('A' for Active; 'I' for Inactive)
REMARK    1  A    between atoms: C3_3  and  C7_8 
REMARK    2  A    between atoms: C9_10  and  O3_20 
ROOT
HETATM    1  C7  UNL     1       0.342   1.132  -0.074  1.00  0.00     0.004 A 
HETATM    2  C8  UNL     1      -0.455   0.052   0.310  1.00  0.00     0.024 A 
HETATM    3  C9  UNL     1       0.035  -1.226   0.621  1.00  0.00     0.092 A 
HETATM    4  C10 UNL     1       1.442  -1.388   0.623  1.00  0.00     0.022 A 
HETATM    5  C11 UNL     1       2.289  -0.327   0.237  1.00  0.00     0.092 A 
HETATM    6  C12 UNL     1       1.716   0.895  -0.132  1.00  0.00     0.024 A 
HETATM    7  O2  UNL     1       3.650  -0.434   0.094  1.00  0.00    -0.336 OA
HETATM    8  C13 UNL     1       4.190  -1.705  -0.057  1.00  0.00     0.099 C 
HETATM    9  C14 UNL     1       3.640  -2.587   1.058  1.00  0.00     0.033 C 
HETATM   10  C15 UNL     1       2.115  -2.699   0.971  1.00  0.00     0.033 C 
HETATM   11  C16 UNL     1       5.712  -1.574   0.100  1.00  0.00     0.030 C 
HETATM   12  C17 UNL     1       3.879  -2.244  -1.458  1.00  0.00     0.030 C 
ENDROOT
BRANCH   1  13
HETATM   13  C3  UNL     1      -0.235   2.450  -0.436  1.00  0.00     0.000 A 
HETATM   14  C2  UNL     1       0.465   3.640  -0.186  1.00  0.00     0.002 A 
HETATM   15  C1  UNL     1      -0.071   4.879  -0.541  1.00  0.00     0.027 A 
HETATM   16  C6  UNL     1      -1.327   4.984  -1.146  1.00  0.00     0.131 A 
HETATM   17  C5  UNL     1      -2.027   3.799  -1.386  1.00  0.00     0.027 A 
HETATM   18  O1  UNL     1      -1.837   6.197  -1.489  1.00  0.00    -0.190 OA
HETATM   19  C4  UNL     1      -1.494   2.555  -1.044  1.00  0.00     0.002 A 
ENDBRANCH   1  13
BRANCH   3  20
HETATM   20  O3  UNL     1      -0.942  -2.139   0.954  1.00  0.00    -0.328 OA
HETATM   21  C18 UNL     1      -0.695  -3.241   1.788  1.00  0.00     0.181 C 
ENDBRANCH   3  20
TORSDOF 2
