REMARK  6 active torsions:
REMARK  status: ('A' for Active; 'I' for Inactive)
REMARK    1  A    between atoms: C1_1  and  C18_20 
REMARK    2  A    between atoms: C3_3  and  C13_15 
REMARK    3  A    between atoms: C5_5  and  C7_8 
REMARK    4  A    between atoms: C7_8  and  C8_9 
REMARK    5  A    between atoms: C13_15  and  C14_16 
REMARK    6  A    between atoms: C18_20  and  C19_21 
ROOT
HETATM    1  C1  UNL     1       1.197  -2.489  -0.015  1.00  0.00     0.062 C 
HETATM    2  C2  UNL     1       1.004  -2.029   1.439  1.00  0.00     0.008 C 
HETATM    3  C3  UNL     1       0.445  -0.601   1.634  1.00  0.00     0.006 C 
HETATM    4  C4  UNL     1      -0.817  -0.347   0.754  1.00  0.00     0.013 C 
HETATM    5  C5  UNL     1      -0.610  -0.739  -0.736  1.00  0.00     0.115 C 
HETATM    6  C6  UNL     1      -0.016  -2.138  -0.862  1.00  0.00     0.157 C 
HETATM    7  O1  UNL     1      -0.474  -2.930  -1.656  1.00  0.00    -0.296 OA
HETATM    8  C11 UNL     1      -1.969  -1.246   1.297  1.00  0.00     0.001 C 
HETATM    9  C12 UNL     1      -1.365   1.093   0.889  1.00  0.00     0.001 C 
ENDROOT
BRANCH   1  10
HETATM   10  C18 UNL     1       2.499  -2.024  -0.695  1.00  0.00     0.033 C 
BRANCH  10  11
HETATM   11  C19 UNL     1       3.727  -2.400   0.097  1.00  0.00    -0.034 C 
HETATM   12  C20 UNL     1       4.792  -1.627   0.376  1.00  0.00    -0.048 C 
HETATM   13  C21 UNL     1       5.935  -2.156   1.215  1.00  0.00     0.026 C 
HETATM   14  C22 UNL     1       4.978  -0.203  -0.090  1.00  0.00     0.026 C 
ENDBRANCH  10  11
ENDBRANCH   1  10
BRANCH   3  15
HETATM   15  C13 UNL     1       1.586   0.441   1.593  1.00  0.00     0.025 C 
BRANCH  15  16
HETATM   16  C14 UNL     1       1.254   1.759   2.250  1.00  0.00    -0.035 C 
HETATM   17  C15 UNL     1       1.591   2.990   1.824  1.00  0.00    -0.048 C 
HETATM   18  C16 UNL     1       1.133   4.221   2.574  1.00  0.00     0.026 C 
HETATM   19  C17 UNL     1       2.412   3.285   0.592  1.00  0.00     0.026 C 
ENDBRANCH  15  16
ENDBRANCH   3  15
BRANCH   5  20
HETATM   20  C7  UNL     1       0.090   0.238  -1.687  1.00  0.00     0.157 C 
HETATM   21  O2  UNL     1       0.635   1.241  -1.287  1.00  0.00    -0.296 OA
BRANCH  20  22
HETATM   22  C8  UNL     1       0.132  -0.081  -3.183  1.00  0.00     0.058 C 
HETATM   23  C9  UNL     1      -1.274  -0.177  -3.800  1.00  0.00     0.008 C 
HETATM   24  C10 UNL     1       0.968   0.949  -3.964  1.00  0.00     0.008 C 
ENDBRANCH  20  22
ENDBRANCH   5  20
TORSDOF 6
