REMARK  2 active torsions:
REMARK  status: ('A' for Active; 'I' for Inactive)
REMARK    1  A    between atoms: C17_20  and  C19_23 
REMARK    2  A    between atoms: C19_23  and  C20_24 
ROOT
HETATM    1  C1  UNL     1      -0.151  -0.636  -0.055  1.00  0.00     0.092 A 
HETATM    2  C2  UNL     1      -0.107  -1.976  -0.450  1.00  0.00     0.053 A 
HETATM    3  C3  UNL     1       1.072  -2.625  -0.816  1.00  0.00     0.156 A 
HETATM    4  C4  UNL     1       2.285  -1.935  -0.733  1.00  0.00     0.128 A 
HETATM    5  C5  UNL     1       2.277  -0.604  -0.284  1.00  0.00     0.062 A 
HETATM    6  C6  UNL     1       1.069   0.058   0.029  1.00  0.00     0.008 A 
HETATM    7  C7  UNL     1       1.025   1.512   0.443  1.00  0.00     0.064 C 
HETATM    8  C8  UNL     1      -0.400   2.054   0.441  1.00  0.00     0.182 C 
HETATM    9  C9  UNL     1      -1.372   1.055   1.055  1.00  0.00     0.127 C 
HETATM   10  O1  UNL     1      -1.367  -0.112   0.299  1.00  0.00    -0.333 OA
HETATM   11  C10 UNL     1      -1.019   0.723   2.513  1.00  0.00     0.033 C 
HETATM   12  C11 UNL     1      -2.805   1.612   1.030  1.00  0.00     0.033 C 
HETATM   13  O2  UNL     1      -0.767   2.333  -0.892  1.00  0.00    -0.221 OA
HETATM   14  C12 UNL     1       3.602   0.060  -0.127  1.00  0.00     0.201 C 
HETATM   15  C13 UNL     1       4.810  -0.804  -0.249  1.00  0.00     0.087 A 
HETATM   16  C14 UNL     1       4.618  -2.105  -0.739  1.00  0.00     0.107 A 
HETATM   17  O3  UNL     1       3.409  -2.596  -1.126  1.00  0.00    -0.305 OA
HETATM   18  C15 UNL     1       5.749  -2.908  -0.899  1.00  0.00     0.052 A 
HETATM   19  C16 UNL     1       7.037  -2.490  -0.561  1.00  0.00     0.131 A 
HETATM   20  C17 UNL     1       7.197  -1.199  -0.043  1.00  0.00     0.033 A 
HETATM   21  C18 UNL     1       6.092  -0.344   0.119  1.00  0.00     0.134 A 
HETATM   22  O4  UNL     1       6.319   0.896   0.638  1.00  0.00    -0.190 OA
HETATM   23  O5  UNL     1       8.099  -3.307  -0.792  1.00  0.00    -0.190 OA
HETATM   24  O6  UNL     1       3.716   1.250   0.141  1.00  0.00    -0.286 OA
HETATM   25  O7  UNL     1       1.062  -3.921  -1.227  1.00  0.00    -0.188 OA
ENDROOT
BRANCH  20  26
HETATM   26  C19 UNL     1       8.576  -0.690   0.338  1.00  0.00     0.056 C 
BRANCH  26  27
HETATM   27  C20 UNL     1       9.091   0.285  -0.690  1.00  0.00    -0.030 C 
HETATM   28  C21 UNL     1      10.182   1.058  -0.551  1.00  0.00    -0.048 C 
HETATM   29  C22 UNL     1      10.593   2.038  -1.625  1.00  0.00     0.026 C 
HETATM   30  C23 UNL     1      11.081   1.035   0.660  1.00  0.00     0.026 C 
ENDBRANCH  26  27
ENDBRANCH  20  26
TORSDOF 2
