REMARK  7 active torsions:
REMARK  status: ('A' for Active; 'I' for Inactive)
REMARK    1  A    between atoms: C6_8  and  C10_14 
REMARK    2  A    between atoms: C6_8  and  C20_24 
REMARK    3  A    between atoms: C10_14  and  C11_15 
REMARK    4  A    between atoms: C12_16  and  C14_18 
REMARK    5  A    between atoms: C14_18  and  C15_19 
REMARK    6  A    between atoms: C15_19  and  C16_20 
REMARK    7  A    between atoms: C20_24  and  C21_25 
ROOT
HETATM    1  C1  UNL     1       0.074  -2.463   0.739  1.00  0.00     0.087 A 
HETATM    2  C2  UNL     1       0.194  -3.777   0.269  1.00  0.00     0.107 A 
HETATM    3  O1  UNL     1       1.397  -4.411   0.223  1.00  0.00    -0.307 OA
HETATM    4  C3  UNL     1       2.512  -3.631   0.091  1.00  0.00     0.102 A 
HETATM    5  C4  UNL     1       2.592  -2.344   0.525  1.00  0.00     0.047 A 
HETATM    6  C5  UNL     1       1.335  -1.765   1.096  1.00  0.00     0.198 C 
HETATM    7  O2  UNL     1       1.313  -0.730   1.753  1.00  0.00    -0.287 OA
HETATM    8  C6  UNL     1       3.852  -1.476   0.386  1.00  0.00     0.089 A 
HETATM    9  C7  UNL     1       5.041  -2.264  -0.185  1.00  0.00     0.202 A 
HETATM   10  C8  UNL     1       4.879  -3.655  -0.645  1.00  0.00     0.168 A 
HETATM   11  C9  UNL     1       3.687  -4.264  -0.498  1.00  0.00     0.055 A 
HETATM   12  O3  UNL     1       5.977  -4.248  -1.184  1.00  0.00    -0.187 OA
HETATM   13  O4  UNL     1       6.168  -1.803  -0.320  1.00  0.00    -0.289 OA
HETATM   14  C25 UNL     1      -0.977  -4.447  -0.093  1.00  0.00     0.052 A 
HETATM   15  C26 UNL     1      -2.238  -3.847  -0.024  1.00  0.00     0.135 A 
HETATM   16  C27 UNL     1      -2.304  -2.533   0.445  1.00  0.00     0.055 A 
HETATM   17  C28 UNL     1      -1.170  -1.816   0.835  1.00  0.00     0.138 A 
HETATM   18  O5  UNL     1      -1.308  -0.535   1.267  1.00  0.00    -0.190 OA
HETATM   19  O6  UNL     1      -3.356  -4.529  -0.386  1.00  0.00    -0.190 OA
ENDROOT
BRANCH   8  20
HETATM   20  C10 UNL     1       4.332  -0.950   1.767  1.00  0.00     0.037 C 
BRANCH  20  21
HETATM   21  C11 UNL     1       5.240   0.258   1.712  1.00  0.00    -0.034 C 
HETATM   22  C12 UNL     1       5.020   1.488   2.212  1.00  0.00    -0.048 C 
HETATM   23  C13 UNL     1       3.795   1.913   2.990  1.00  0.00     0.026 C 
BRANCH  22  24
HETATM   24  C14 UNL     1       6.044   2.590   2.008  1.00  0.00     0.026 C 
BRANCH  24  25
HETATM   25  C15 UNL     1       6.327   2.908   0.528  1.00  0.00     0.030 C 
BRANCH  25  26
HETATM   26  C16 UNL     1       5.089   3.307  -0.237  1.00  0.00    -0.034 C 
HETATM   27  C17 UNL     1       5.055   3.874  -1.455  1.00  0.00    -0.048 C 
HETATM   28  C18 UNL     1       3.740   4.184  -2.134  1.00  0.00     0.026 C 
HETATM   29  C19 UNL     1       6.282   4.244  -2.252  1.00  0.00     0.026 C 
ENDBRANCH  25  26
ENDBRANCH  24  25
ENDBRANCH  22  24
ENDBRANCH  20  21
ENDBRANCH   8  20
BRANCH   8  30
HETATM   30  C20 UNL     1       3.599  -0.382  -0.686  1.00  0.00     0.037 C 
BRANCH  30  31
HETATM   31  C21 UNL     1       2.525   0.623  -0.361  1.00  0.00    -0.034 C 
HETATM   32  C22 UNL     1       1.419   0.920  -1.067  1.00  0.00    -0.048 C 
HETATM   33  C23 UNL     1       0.458   1.979  -0.574  1.00  0.00     0.026 C 
HETATM   34  C24 UNL     1       1.012   0.280  -2.372  1.00  0.00     0.026 C 
ENDBRANCH  30  31
ENDBRANCH   8  30
TORSDOF 7
