REMARK  0 active torsions:
REMARK  status: ('A' for Active; 'I' for Inactive)
ROOT
HETATM    1  C1  UNL     1       5.232   3.361   0.899  1.00  0.00     0.100 A 
HETATM    2  C2  UNL     1       4.624   2.632  -0.131  1.00  0.00     0.024 A 
HETATM    3  C3  UNL     1       4.627   1.236  -0.141  1.00  0.00    -0.002 A 
HETATM    4  C4  UNL     1       5.233   0.506   0.887  1.00  0.00    -0.022 A 
HETATM    5  C5  UNL     1       5.839   1.222   1.923  1.00  0.00    -0.002 A 
HETATM    6  C6  UNL     1       5.850   2.619   1.915  1.00  0.00     0.024 A 
HETATM    7  C7  UNL     1       5.214  -1.008   0.882  1.00  0.00     0.031 C 
HETATM    8  C8  UNL     1       4.087  -1.558   1.778  1.00  0.00     0.033 C 
HETATM    9  C9  UNL     1       2.833  -0.725   1.613  1.00  0.00     0.003 A 
HETATM   10  C10 UNL     1       2.089  -0.764   0.423  1.00  0.00     0.115 A 
HETATM   11  C11 UNL     1       1.043   0.154   0.235  1.00  0.00     0.141 A 
HETATM   12  C12 UNL     1       0.701   1.086   1.234  1.00  0.00     0.124 A 
HETATM   13  C13 UNL     1       1.405   1.035   2.444  1.00  0.00     0.026 A 
HETATM   14  C14 UNL     1       2.463   0.153   2.631  1.00  0.00    -0.000 A 
HETATM   15  O1  UNL     1      -0.289   2.002   0.976  1.00  0.00    -0.305 OA
HETATM   16  C15 UNL     1      -0.781   2.687   2.051  1.00  0.00     0.100 A 
HETATM   17  C16 UNL     1      -0.091   3.780   2.594  1.00  0.00     0.020 A 
HETATM   18  C17 UNL     1      -0.520   4.447   3.746  1.00  0.00    -0.020 A 
HETATM   19  C18 UNL     1       0.312   5.537   4.386  1.00  0.00     0.031 C 
HETATM   20  C19 UNL     1       1.827   5.249   4.440  1.00  0.00     0.031 C 
HETATM   21  C20 UNL     1       2.634   5.775   3.270  1.00  0.00    -0.020 A 
HETATM   22  C21 UNL     1       3.541   4.969   2.568  1.00  0.00     0.023 A 
HETATM   23  C22 UNL     1       4.352   5.462   1.533  1.00  0.00     0.125 A 
HETATM   24  O2  UNL     1       5.295   4.724   0.864  1.00  0.00    -0.305 OA
HETATM   25  C23 UNL     1       4.227   6.818   1.187  1.00  0.00     0.154 A 
HETATM   26  C24 UNL     1       3.334   7.633   1.885  1.00  0.00     0.029 A 
HETATM   27  C25 UNL     1       2.557   7.127   2.924  1.00  0.00    -0.002 A 
HETATM   28  O3  UNL     1       4.996   7.360   0.204  1.00  0.00    -0.188 OA
HETATM   29  C26 UNL     1      -1.736   4.054   4.318  1.00  0.00    -0.004 A 
HETATM   30  C27 UNL     1      -2.476   3.009   3.767  1.00  0.00     0.002 A 
HETATM   31  C28 UNL     1      -1.991   2.324   2.654  1.00  0.00     0.025 A 
HETATM   32  O4  UNL     1       0.390   0.215  -0.961  1.00  0.00    -0.299 OA
HETATM   33  C29 UNL     1       1.138  -0.190  -2.078  1.00  0.00     0.277 C 
HETATM   34  C30 UNL     1       1.911  -1.478  -1.829  1.00  0.00     0.198 C 
HETATM   35  O5  UNL     1       2.468  -1.634  -0.556  1.00  0.00    -0.322 OA
HETATM   36  C31 UNL     1       0.851  -2.476  -2.201  1.00  0.00     0.006 C 
HETATM   37  C32 UNL     1      -0.087  -1.890  -2.957  1.00  0.00     0.069 C 
HETATM   38  O6  UNL     1       0.192  -0.540  -3.092  1.00  0.00    -0.308 OA
HETATM   39  C33 UNL     1      -1.297  -2.594  -3.486  1.00  0.00     0.051 C 
HETATM   40  C34 UNL     1      -1.490  -3.957  -2.787  1.00  0.00     0.007 C 
HETATM   41  C35 UNL     1      -0.146  -4.739  -2.676  1.00  0.00     0.004 C 
HETATM   42  C36 UNL     1       0.840  -3.916  -1.800  1.00  0.00     0.026 C 
HETATM   43  C37 UNL     1      -0.373  -6.098  -1.977  1.00  0.00     0.000 C 
HETATM   44  C38 UNL     1      -1.518  -6.905  -2.598  1.00  0.00     0.000 C 
HETATM   45  C39 UNL     1      -2.822  -6.104  -2.534  1.00  0.00     0.000 C 
HETATM   46  C40 UNL     1      -2.746  -4.744  -3.267  1.00  0.00     0.000 C 
HETATM   47  C41 UNL     1      -4.034  -3.961  -2.896  1.00  0.00     0.000 C 
HETATM   48  C42 UNL     1      -2.820  -4.971  -4.793  1.00  0.00     0.000 C 
HETATM   49  C43 UNL     1       0.564  -4.970  -4.030  1.00  0.00     0.000 C 
ENDROOT
TORSDOF 0
