REMARK  4 active torsions:
REMARK  status: ('A' for Active; 'I' for Inactive)
REMARK    1  A    between atoms: C7_7  and  C10_13 
REMARK    2  A    between atoms: C7_7  and  C14_18 
REMARK    3  A    between atoms: N1_9  and  O1_10 
REMARK    4  A    between atoms: C15_19  and  C18_22 
ROOT
HETATM    1  C1  UNL     1      -3.121  -1.738   0.004  1.00  0.00    -0.000 A 
HETATM    2  C2  UNL     1      -2.816  -3.088   0.206  1.00  0.00     0.002 A 
HETATM    3  C3  UNL     1      -1.499  -3.533   0.079  1.00  0.00     0.019 A 
HETATM    4  C4  UNL     1      -0.519  -2.593  -0.252  1.00  0.00     0.087 A 
HETATM    5  C5  UNL     1      -0.799  -1.236  -0.454  1.00  0.00     0.006 A 
HETATM    6  C6  UNL     1      -2.124  -0.813  -0.321  1.00  0.00    -0.002 A 
HETATM    7  C7  UNL     1       0.453  -0.414  -0.747  1.00  0.00     0.121 A 
HETATM    8  C8  UNL     1       1.454  -1.590  -0.790  1.00  0.00     0.266 A 
HETATM    9  N1  UNL     1       0.856  -2.787  -0.449  1.00  0.00    -0.185 N 
HETATM   10  O2  UNL     1       2.629  -1.515  -1.145  1.00  0.00    -0.269 OA
ENDROOT
BRANCH   7  11
HETATM   11  C10 UNL     1       0.483   0.295  -2.111  1.00  0.00     0.128 C 
HETATM   12  O3  UNL     1      -0.713   0.990  -2.320  1.00  0.00    -0.356 OA
HETATM   13  C11 UNL     1      -0.678   2.337  -1.929  1.00  0.00     0.144 C 
HETATM   14  C12 UNL     1       0.253   2.598  -0.751  1.00  0.00     0.061 C 
HETATM   15  C13 UNL     1      -0.099   1.805   0.528  1.00  0.00     0.223 C 
HETATM   16  C16 UNL     1       1.704   2.153  -1.019  1.00  0.00     0.013 C 
HETATM   17  C14 UNL     1       0.774   0.530   0.429  1.00  0.00     0.052 C 
HETATM   18  N2  UNL     1       0.467   2.569   1.635  1.00  0.00     0.138 N 
HETATM   19  C15 UNL     1       2.042   1.397   0.287  1.00  0.00     0.053 C 
HETATM   20  C20 UNL     1       1.899   2.354   1.495  1.00  0.00     0.254 C 
HETATM   21  C21 UNL     1      -0.047   2.181   2.938  1.00  0.00     0.285 C 
HETATM   22  C17 UNL     1       1.692   1.223  -2.240  1.00  0.00     0.031 C 
BRANCH  19  23
HETATM   23  C18 UNL     1       3.392   0.733   0.315  1.00  0.00    -0.025 C 
HETATM   24  C19 UNL     1       3.755  -0.193   1.214  1.00  0.00    -0.005 C 
ENDBRANCH  19  23
ENDBRANCH   7  11
BRANCH   9  25
HETATM   25  O1  UNL     1       1.422  -3.975  -0.500  1.00  0.00    -0.248 OA
HETATM   26  C9  UNL     1       2.394  -4.180   0.501  1.00  0.00     0.209 C 
ENDBRANCH   9  25
TORSDOF 4
