REMARK  0 active torsions:
REMARK  status: ('A' for Active; 'I' for Inactive)
ROOT
HETATM    1  C1  UNL     1      -3.014   0.033   0.636  1.00  0.00     0.002 A 
HETATM    2  C2  UNL     1      -2.868  -1.284   1.060  1.00  0.00     0.028 A 
HETATM    3  C3  UNL     1      -1.655  -1.983   0.936  1.00  0.00     0.134 A 
HETATM    4  C4  UNL     1      -0.569  -1.310   0.351  1.00  0.00     0.065 A 
HETATM    5  C5  UNL     1      -0.710   0.029  -0.074  1.00  0.00     0.042 A 
HETATM    6  C6  UNL     1      -1.926   0.699   0.067  1.00  0.00     0.003 A 
HETATM    7  C7  UNL     1       0.445   0.767  -0.643  1.00  0.00     0.203 C 
HETATM    8  C8  UNL     1       1.835   0.166  -0.410  1.00  0.00     0.213 C 
HETATM    9  C9  UNL     1       1.720  -1.306  -0.821  1.00  0.00     0.213 C 
HETATM   10  C10 UNL     1       0.731  -2.002   0.123  1.00  0.00     0.205 C 
HETATM   11  O1  UNL     1       1.003  -3.085   0.624  1.00  0.00    -0.289 OA
HETATM   12  C11 UNL     1       3.078  -2.011  -0.835  1.00  0.00     0.044 C 
HETATM   13  C12 UNL     1       4.152  -1.184  -1.558  1.00  0.00     0.037 C 
HETATM   14  C13 UNL     1       4.196   0.261  -1.057  1.00  0.00     0.164 C 
HETATM   15  C14 UNL     1       2.856   0.945  -1.233  1.00  0.00     0.234 C 
HETATM   16  C15 UNL     1       2.962   2.371  -0.711  1.00  0.00     0.185 C 
HETATM   17  C16 UNL     1       3.131   2.413   0.787  1.00  0.00     0.095 C 
HETATM   18  C17 UNL     1       3.349   0.957   1.222  1.00  0.00     0.103 C 
HETATM   19  C18 UNL     1       4.539   0.369   0.438  1.00  0.00     0.061 C 
HETATM   20  C19 UNL     1       3.605   0.890   2.729  1.00  0.00     0.030 C 
HETATM   21  O2  UNL     1       2.189   0.223   0.954  1.00  0.00    -0.350 OA
HETATM   22  O3  UNL     1       2.890   3.321  -1.457  1.00  0.00    -0.293 OA
HETATM   23  O4  UNL     1       2.470   0.988  -2.585  1.00  0.00    -0.213 OA
HETATM   24  O5  UNL     1       5.135   0.974  -1.817  1.00  0.00    -0.223 OA
HETATM   25  O6  UNL     1       1.178  -1.377  -2.124  1.00  0.00    -0.215 OA
HETATM   26  O7  UNL     1       0.346   1.797  -1.299  1.00  0.00    -0.289 OA
HETATM   27  O8  UNL     1      -1.609  -3.280   1.348  1.00  0.00    -0.190 OA
ENDROOT
TORSDOF 0
