REMARK  12 active torsions:
REMARK  status: ('A' for Active; 'I' for Inactive)
REMARK    1  A    between atoms: C2_2  and  C17_19 
REMARK    2  A    between atoms: C5_5  and  O1_7 
REMARK    3  A    between atoms: O1_7  and  C7_8 
REMARK    4  A    between atoms: C7_8  and  C8_9 
REMARK    5  A    between atoms: C9_10  and  C11_12 
REMARK    6  A    between atoms: C11_12  and  C12_13 
REMARK    7  A    between atoms: C12_13  and  C13_14 
REMARK    8  A    between atoms: C14_15  and  C16_17 
REMARK    9  A    between atoms: C17_19  and  C18_20 
REMARK   10  A    between atoms: C18_20  and  N1_21 
REMARK       I    between atoms: N1_21  and  C19_22 
REMARK   11  A    between atoms: C19_22  and  C20_24 
REMARK   12  A    between atoms: C21_25  and  S1_26 
ROOT
HETATM    1  C1  UNL     1       9.690   1.627   0.261  1.00  0.00    -0.002 A 
HETATM    2  C2  UNL     1      10.173   0.448   0.837  1.00  0.00    -0.020 A 
HETATM    3  C3  UNL     1       9.241  -0.421   1.409  1.00  0.00    -0.002 A 
HETATM    4  C4  UNL     1       7.879  -0.124   1.382  1.00  0.00     0.024 A 
HETATM    5  C5  UNL     1       7.373   1.049   0.803  1.00  0.00     0.094 A 
HETATM    6  C6  UNL     1       8.324   1.918   0.247  1.00  0.00     0.024 A 
ENDROOT
BRANCH   5   7
HETATM    7  O1  UNL     1       6.016   1.247   0.805  1.00  0.00    -0.326 OA
BRANCH   7   8
HETATM    8  C7  UNL     1       5.491   2.396   0.171  1.00  0.00     0.174 C 
BRANCH   8   9
HETATM    9  C8  UNL     1       3.982   2.319   0.161  1.00  0.00    -0.002 C 
HETATM   10  C9  UNL     1       3.111   3.341   0.252  1.00  0.00    -0.045 C 
HETATM   11  C10 UNL     1       3.528   4.790   0.362  1.00  0.00     0.026 C 
BRANCH  10  12
HETATM   12  C11 UNL     1       1.603   3.146   0.235  1.00  0.00     0.026 C 
BRANCH  12  13
HETATM   13  C12 UNL     1       1.088   1.697   0.227  1.00  0.00     0.030 C 
BRANCH  13  14
HETATM   14  C13 UNL     1      -0.419   1.600   0.193  1.00  0.00    -0.032 C 
HETATM   15  C14 UNL     1      -1.108   0.457   0.017  1.00  0.00    -0.015 C 
HETATM   16  C15 UNL     1      -0.447  -0.894  -0.133  1.00  0.00     0.029 C 
BRANCH  15  17
HETATM   17  C16 UNL     1      -2.617   0.414  -0.058  1.00  0.00     0.204 C 
HETATM   18  O2  UNL     1      -3.236   1.693  -0.011  1.00  0.00    -0.216 OA
ENDBRANCH  15  17
ENDBRANCH  13  14
ENDBRANCH  12  13
ENDBRANCH  10  12
ENDBRANCH   8   9
ENDBRANCH   7   8
ENDBRANCH   5   7
BRANCH   2  19
HETATM   19  C17 UNL     1      11.646   0.106   0.827  1.00  0.00     0.053 C 
BRANCH  19  20
HETATM   20  C18 UNL     1      11.922  -1.073  -0.120  1.00  0.00     0.134 C 
BRANCH  20  21
HETATM   21  N1  UNL     1      13.364  -1.328  -0.189  1.00  0.00    -0.234 NA
HETATM   22  C19 UNL     1      13.950  -2.549  -0.360  1.00  0.00     0.276 C 
HETATM   23  O3  UNL     1      15.166  -2.618  -0.282  1.00  0.00    -0.266 OA
BRANCH  22  24
HETATM   24  C20 UNL     1      13.157  -3.803  -0.532  1.00  0.00     0.074 C 
HETATM   25  C21 UNL     1      12.076  -3.914  -1.324  1.00  0.00     0.099 C 
BRANCH  25  26
HETATM   26  S1  UNL     1      11.161  -5.448  -1.480  1.00  0.00     0.192 S 
HETATM   27  C22 UNL     1       9.412  -5.063  -1.495  1.00  0.00     0.145 C 
HETATM   28  O4  UNL     1      11.394  -6.277  -0.311  1.00  0.00    -0.222 OA
HETATM   29  O5  UNL     1      11.482  -6.049  -2.761  1.00  0.00    -0.222 OA
ENDBRANCH  25  26
ENDBRANCH  22  24
ENDBRANCH  20  21
ENDBRANCH  19  20
ENDBRANCH   2  19
TORSDOF 12
