REMARK  6 active torsions:
REMARK  status: ('A' for Active; 'I' for Inactive)
REMARK    1  A    between atoms: C6_6  and  O1_7 
REMARK    2  A    between atoms: C9_10  and  C11_13 
REMARK    3  A    between atoms: C13_15  and  O9_31 
REMARK    4  A    between atoms: C14_16  and  O3_19 
REMARK    5  A    between atoms: O3_19  and  C17_20 
REMARK    6  A    between atoms: C18_22  and  C22_29 
ROOT
HETATM    1  C11 UNL     1       4.026   1.531  -1.172  1.00  0.00     0.007 A 
HETATM    2  C12 UNL     1       3.971   0.635  -0.098  1.00  0.00     0.026 A 
HETATM    3  C13 UNL     1       2.783   0.152   0.475  1.00  0.00     0.116 A 
HETATM    4  C14 UNL     1       1.558   0.586  -0.088  1.00  0.00     0.119 A 
HETATM    5  C15 UNL     1       1.626   1.535  -1.120  1.00  0.00     0.026 A 
HETATM    6  C16 UNL     1       2.816   2.027  -1.652  1.00  0.00     0.002 A 
ENDROOT
BRANCH   1   7
HETATM    7  C9  UNL     1       5.318   1.934  -1.782  1.00  0.00     0.064 C 
HETATM    8  C8  UNL     1       6.364   0.899  -1.992  1.00  0.00     0.201 C 
HETATM    9  C5  UNL     1       7.717   1.402  -2.347  1.00  0.00     0.086 A 
HETATM   10  O10 UNL     1       6.091  -0.290  -1.855  1.00  0.00    -0.286 OA
HETATM   11  C4  UNL     1       7.825   2.779  -2.644  1.00  0.00     0.107 A 
HETATM   12  C6  UNL     1       8.825   0.519  -2.315  1.00  0.00     0.123 A 
HETATM   13  C3  UNL     1       9.083   3.292  -2.991  1.00  0.00     0.051 A 
HETATM   14  O2  UNL     1       6.754   3.628  -2.672  1.00  0.00    -0.305 OA
HETATM   15  C2  UNL     1      10.172   2.429  -3.033  1.00  0.00     0.123 A 
HETATM   16  C1  UNL     1      10.033   1.081  -2.732  1.00  0.00     0.141 A 
HETATM   17  O11 UNL     1      11.482   2.691  -3.376  1.00  0.00    -0.299 OA
HETATM   18  O12 UNL     1      11.264   0.464  -2.869  1.00  0.00    -0.298 OA
HETATM   19  C24 UNL     1      12.206   1.458  -3.292  1.00  0.00     0.304 A 
HETATM   20  C10 UNL     1       5.587   3.213  -2.110  1.00  0.00     0.126 C 
BRANCH  12  21
HETATM   21  O1  UNL     1       8.728  -0.837  -2.149  1.00  0.00    -0.326 OA
HETATM   22  C7  UNL     1       8.954  -1.264  -0.825  1.00  0.00     0.181 C 
ENDBRANCH  12  21
ENDBRANCH   1   7
BRANCH   3  23
HETATM   23  O9  UNL     1       2.797  -0.742   1.514  1.00  0.00    -0.326 OA
HETATM   24  C23 UNL     1       4.012  -1.294   1.962  1.00  0.00     0.181 C 
ENDBRANCH   3  23
BRANCH   4  25
HETATM   25  O3  UNL     1       0.278   0.204   0.247  1.00  0.00    -0.302 OA
BRANCH  25  26
HETATM   26  C17 UNL     1      -0.023  -0.775   1.216  1.00  0.00     0.274 C 
HETATM   27  O4  UNL     1      -1.196  -1.380   0.702  1.00  0.00    -0.326 OA
HETATM   28  C18 UNL     1      -1.671  -2.407   1.534  1.00  0.00     0.184 C 
HETATM   29  C19 UNL     1      -2.085  -1.809   2.872  1.00  0.00     0.215 C 
HETATM   30  C20 UNL     1      -0.895  -1.121   3.511  1.00  0.00     0.220 C 
HETATM   31  O7  UNL     1      -2.535  -2.803   3.758  1.00  0.00    -0.218 OA
HETATM   32  C21 UNL     1      -0.325  -0.110   2.541  1.00  0.00     0.241 C 
HETATM   33  O6  UNL     1      -1.309  -0.472   4.686  1.00  0.00    -0.218 OA
HETATM   34  O5  UNL     1       0.847   0.438   3.091  1.00  0.00    -0.215 OA
BRANCH  28  35
HETATM   35  C22 UNL     1      -2.820  -3.113   0.830  1.00  0.00     0.214 C 
HETATM   36  O8  UNL     1      -2.333  -3.777  -0.320  1.00  0.00    -0.218 OA
ENDBRANCH  28  35
ENDBRANCH  25  26
ENDBRANCH   4  25
TORSDOF 6
