REMARK  2 active torsions:
REMARK  status: ('A' for Active; 'I' for Inactive)
REMARK    1  A    between atoms: C14_18  and  C17_22 
REMARK    2  A    between atoms: C17_22  and  C18_23 
ROOT
HETATM    1  C1  UNL     1       9.876  -0.543   0.007  1.00  0.00     0.001 A 
HETATM    2  C2  UNL     1       9.904   0.728   0.825  1.00  0.00     0.117 A 
HETATM    3  O1  UNL     1       8.644   1.258   1.161  1.00  0.00    -0.329 OA
HETATM    4  C3  UNL     1       7.494   0.661   0.718  1.00  0.00     0.121 A 
HETATM    5  C4  UNL     1       7.473  -0.503  -0.060  1.00  0.00     0.024 A 
HETATM    6  C5  UNL     1       8.743  -1.124  -0.417  1.00  0.00    -0.000 A 
HETATM    7  C6  UNL     1       6.266  -1.074  -0.481  1.00  0.00     0.007 A 
HETATM    8  C7  UNL     1       5.054  -0.478  -0.128  1.00  0.00     0.064 A 
HETATM    9  C8  UNL     1       5.037   0.692   0.643  1.00  0.00     0.130 A 
HETATM   10  C9  UNL     1       6.258   1.243   1.058  1.00  0.00     0.176 A 
HETATM   11  O2  UNL     1       6.228   2.374   1.815  1.00  0.00    -0.186 OA
HETATM   12  O3  UNL     1       3.884   1.315   1.014  1.00  0.00    -0.305 OA
HETATM   13  C10 UNL     1       2.692   0.807   0.587  1.00  0.00     0.107 A 
HETATM   14  C11 UNL     1       2.529  -0.366  -0.166  1.00  0.00     0.087 A 
HETATM   15  C12 UNL     1       3.773  -1.079  -0.570  1.00  0.00     0.201 A 
HETATM   16  O4  UNL     1       3.784  -2.092  -1.263  1.00  0.00    -0.286 OA
HETATM   17  C13 UNL     1       1.252  -0.843  -0.537  1.00  0.00     0.134 A 
HETATM   18  C14 UNL     1       0.090  -0.111  -0.201  1.00  0.00     0.032 A 
HETATM   19  C15 UNL     1       0.243   1.058   0.569  1.00  0.00     0.131 A 
HETATM   20  C16 UNL     1       1.522   1.471   0.947  1.00  0.00     0.052 A 
HETATM   21  O5  UNL     1      -0.804   1.788   1.038  1.00  0.00    -0.190 OA
HETATM   22  O6  UNL     1       1.136  -2.042  -1.171  1.00  0.00    -0.190 OA
HETATM   23  C22 UNL     1      10.646   0.444   2.138  1.00  0.00     0.035 C 
HETATM   24  C23 UNL     1      10.659   1.797   0.024  1.00  0.00     0.035 C 
ENDROOT
BRANCH  18  25
HETATM   25  C17 UNL     1      -1.325  -0.582  -0.611  1.00  0.00     0.041 C 
HETATM   26  C20 UNL     1      -2.164   0.552  -1.250  1.00  0.00     0.009 C 
HETATM   27  C21 UNL     1      -2.050  -1.111   0.649  1.00  0.00     0.009 C 
BRANCH  25  28
HETATM   28  C18 UNL     1      -1.346  -1.714  -1.633  1.00  0.00    -0.023 C 
HETATM   29  C19 UNL     1      -1.089  -1.587  -2.943  1.00  0.00    -0.005 C 
ENDBRANCH  25  28
ENDBRANCH  18  25
TORSDOF 2
