REMARK  3 active torsions:
REMARK  status: ('A' for Active; 'I' for Inactive)
REMARK    1  A    between atoms: C1_1  and  C2_2 
REMARK    2  A    between atoms: C2_2  and  C3_3 
REMARK    3  A    between atoms: C5_6  and  O6_26 
ROOT
HETATM    1  C3  UNL     1       0.766  -0.138   0.056  1.00  0.00     0.010 A 
HETATM    2  C4  UNL     1       0.815  -1.526  -0.141  1.00  0.00     0.151 A 
HETATM    3  O1  UNL     1      -0.344  -2.220  -0.321  1.00  0.00    -0.188 OA
HETATM    4  C5  UNL     1       2.031  -2.237  -0.144  1.00  0.00     0.142 A 
HETATM    5  C6  UNL     1       3.237  -1.541   0.082  1.00  0.00     0.127 A 
HETATM    6  C7  UNL     1       3.181  -0.155   0.291  1.00  0.00     0.064 A 
HETATM    7  C8  UNL     1       1.963   0.535   0.296  1.00  0.00     0.003 A 
HETATM    8  C9  UNL     1       4.439   0.608   0.502  1.00  0.00     0.201 C 
HETATM    9  C10 UNL     1       5.707  -0.125   0.253  1.00  0.00     0.087 A 
HETATM   10  C11 UNL     1       5.597  -1.517   0.057  1.00  0.00     0.107 A 
HETATM   11  O2  UNL     1       4.424  -2.208   0.125  1.00  0.00    -0.305 OA
HETATM   12  C12 UNL     1       6.765  -2.249  -0.175  1.00  0.00     0.049 A 
HETATM   13  C13 UNL     1       7.989  -1.589  -0.226  1.00  0.00     0.094 A 
HETATM   14  C14 UNL     1       8.082  -0.215  -0.050  1.00  0.00     0.027 A 
HETATM   15  C15 UNL     1       6.944   0.560   0.192  1.00  0.00     0.134 A 
HETATM   16  O3  UNL     1       7.080   1.901   0.377  1.00  0.00    -0.190 OA
HETATM   17  C16 UNL     1       9.537   0.205  -0.120  1.00  0.00     0.048 C 
HETATM   18  C17 UNL     1      10.178  -1.120  -0.640  1.00  0.00     0.125 C 
HETATM   19  O4  UNL     1       9.221  -2.160  -0.443  1.00  0.00    -0.333 OA
HETATM   20  C18 UNL     1      11.538  -1.513  -0.055  1.00  0.00     0.033 C 
HETATM   21  C19 UNL     1       9.784   1.351  -1.114  1.00  0.00     0.007 C 
HETATM   22  C20 UNL     1      10.011   0.601   1.289  1.00  0.00     0.007 C 
HETATM   23  O5  UNL     1       4.408   1.793   0.824  1.00  0.00    -0.286 OA
ENDROOT
BRANCH   1  24
HETATM   24  C2  UNL     1      -0.583   0.557   0.067  1.00  0.00     0.054 C 
BRANCH  24  25
HETATM   25  C1  UNL     1      -0.619   2.036  -0.231  1.00  0.00    -0.030 C 
HETATM   26  C22 UNL     1      -1.685   2.833  -0.033  1.00  0.00    -0.048 C 
HETATM   27  C23 UNL     1      -1.642   4.307  -0.365  1.00  0.00     0.026 C 
HETATM   28  C24 UNL     1      -3.012   2.353   0.505  1.00  0.00     0.026 C 
ENDBRANCH  24  25
ENDBRANCH   1  24
BRANCH   4  29
HETATM   29  O6  UNL     1       1.906  -3.598  -0.313  1.00  0.00    -0.324 OA
HETATM   30  C21 UNL     1       2.959  -4.478  -0.002  1.00  0.00     0.182 C 
ENDBRANCH   4  29
TORSDOF 3
