REMARK  2 active torsions:
REMARK  status: ('A' for Active; 'I' for Inactive)
REMARK    1  A    between atoms: C10_10  and  O1_11 
REMARK    2  A    between atoms: O1_11  and  C11_12 
ROOT
HETATM    1  C1  UNL     1       5.133  -2.051  -1.641  1.00  0.00     0.000 C 
HETATM    2  C2  UNL     1       6.060  -1.048  -0.954  1.00  0.00     0.000 C 
HETATM    3  C3  UNL     1       5.402   0.329  -0.694  1.00  0.00     0.002 C 
HETATM    4  C4  UNL     1       4.027   0.111   0.015  1.00  0.00     0.028 C 
HETATM    5  C5  UNL     1       3.033  -0.938  -0.587  1.00  0.00     0.005 C 
HETATM    6  C6  UNL     1       3.841  -2.247  -0.835  1.00  0.00     0.000 C 
HETATM    7  C7  UNL     1       1.905  -1.231   0.471  1.00  0.00     0.037 C 
HETATM    8  C8  UNL     1       1.270   0.006   1.159  1.00  0.00     0.060 C 
HETATM    9  C9  UNL     1       2.313   1.035   1.617  1.00  0.00     0.038 C 
HETATM   10  C10 UNL     1       3.345   1.388   0.543  1.00  0.00     0.125 C 
HETATM   11  C13 UNL     1       0.119   0.612   0.329  1.00  0.00     0.012 C 
HETATM   12  C14 UNL     1      -0.969  -0.463   0.432  1.00  0.00     0.028 C 
HETATM   13  C15 UNL     1      -0.520  -1.679  -0.391  1.00  0.00     0.037 C 
HETATM   14  C16 UNL     1       0.827  -2.263   0.064  1.00  0.00     0.153 C 
HETATM   15  O3  UNL     1       0.576  -3.117   1.161  1.00  0.00    -0.223 OA
HETATM   16  C17 UNL     1      -0.904  -0.753   1.905  1.00  0.00     0.012 C 
HETATM   17  C18 UNL     1       0.473  -0.496   2.376  1.00  0.00     0.168 C 
HETATM   18  O4  UNL     1       0.905  -0.649   3.510  1.00  0.00    -0.292 OA
HETATM   19  C19 UNL     1      -1.900  -1.193   2.692  1.00  0.00    -0.002 C 
HETATM   20  C20 UNL     1       2.413  -0.547  -1.946  1.00  0.00     0.000 C 
HETATM   21  C21 UNL     1       6.394   1.096   0.226  1.00  0.00     0.000 C 
HETATM   22  C22 UNL     1       5.344   1.148  -2.000  1.00  0.00     0.000 C 
ENDROOT
BRANCH  10  23
HETATM   23  O1  UNL     1       2.736   2.100  -0.489  1.00  0.00    -0.304 OA
BRANCH  23  24
HETATM   24  C11 UNL     1       2.721   3.460  -0.588  1.00  0.00     0.272 C 
HETATM   25  O2  UNL     1       2.147   4.025  -1.495  1.00  0.00    -0.264 OA
HETATM   26  C12 UNL     1       3.465   4.247   0.476  1.00  0.00     0.106 C 
ENDBRANCH  23  24
ENDBRANCH  10  23
TORSDOF 2
