REMARK  27 active torsions:
REMARK  status: ('A' for Active; 'I' for Inactive)
REMARK    1  A    between atoms: C1_1  and  C2_2 
REMARK    2  A    between atoms: C1_1  and  C19_21 
REMARK    3  A    between atoms: C2_2  and  C3_3 
REMARK    4  A    between atoms: C3_3  and  C4_4 
REMARK    5  A    between atoms: C4_4  and  C5_5 
REMARK    6  A    between atoms: C6_6  and  C7_7 
REMARK    7  A    between atoms: C7_7  and  C8_8 
REMARK    8  A    between atoms: C8_8  and  C9_9 
REMARK    9  A    between atoms: C9_9  and  C10_10 
REMARK   10  A    between atoms: C10_10  and  C11_11 
REMARK   11  A    between atoms: C11_11  and  C12_12 
REMARK   12  A    between atoms: C12_12  and  C13_13 
REMARK   13  A    between atoms: C13_13  and  C14_14 
REMARK   14  A    between atoms: C14_14  and  C15_15 
REMARK   15  A    between atoms: C15_15  and  C16_16 
REMARK   16  A    between atoms: C16_16  and  C17_17 
REMARK   17  A    between atoms: C19_21  and  C20_22 
REMARK   18  A    between atoms: C20_22  and  C21_23 
REMARK   19  A    between atoms: C21_23  and  C22_24 
REMARK   20  A    between atoms: C23_26  and  C26_29 
REMARK   21  A    between atoms: C26_29  and  C27_30 
REMARK   22  A    between atoms: C27_30  and  C28_31 
REMARK   23  A    between atoms: C28_31  and  C29_32 
REMARK   24  A    between atoms: C29_32  and  C30_33 
REMARK   25  A    between atoms: C30_33  and  C31_34 
REMARK   26  A    between atoms: C31_34  and  C32_35 
REMARK   27  A    between atoms: C32_35  and  C33_36 
ROOT
HETATM    1  C20 UNL     1       9.207  -4.797   2.438  1.00  0.00     0.038 C 
ENDROOT
BRANCH   1   2
HETATM    2  C19 UNL     1      10.142  -3.620   2.755  1.00  0.00     0.038 C 
BRANCH   2   3
HETATM    3  C1  UNL     1      11.471  -4.014   3.406  1.00  0.00     0.182 C 
HETATM    4  O2  UNL     1      12.361  -4.460   2.411  1.00  0.00    -0.221 OA
BRANCH   3   5
HETATM    5  C2  UNL     1      12.165  -2.942   4.247  1.00  0.00     0.183 C 
HETATM    6  O1  UNL     1      11.287  -2.521   5.267  1.00  0.00    -0.221 OA
BRANCH   5   7
HETATM    7  C3  UNL     1      12.740  -1.705   3.541  1.00  0.00     0.040 C 
BRANCH   7   8
HETATM    8  C4  UNL     1      11.738  -0.949   2.661  1.00  0.00     0.028 C 
BRANCH   8   9
HETATM    9  C5  UNL     1      12.112   0.458   2.275  1.00  0.00    -0.031 C 
HETATM   10  C6  UNL     1      11.231   1.327   1.749  1.00  0.00    -0.031 C 
BRANCH  10  11
HETATM   11  C7  UNL     1       9.776   1.012   1.484  1.00  0.00     0.026 C 
BRANCH  11  12
HETATM   12  C8  UNL     1       9.260   1.608   0.165  1.00  0.00     0.005 C 
BRANCH  12  13
HETATM   13  C9  UNL     1       7.829   1.128  -0.136  1.00  0.00     0.000 C 
BRANCH  13  14
HETATM   14  C10 UNL     1       7.237   1.810  -1.380  1.00  0.00     0.000 C 
BRANCH  14  15
HETATM   15  C11 UNL     1       5.853   1.245  -1.736  1.00  0.00     0.000 C 
BRANCH  15  16
HETATM   16  C12 UNL     1       5.193   2.014  -2.892  1.00  0.00     0.000 C 
BRANCH  16  17
HETATM   17  C13 UNL     1       3.861   1.378  -3.320  1.00  0.00     0.000 C 
BRANCH  17  18
HETATM   18  C14 UNL     1       3.140   2.221  -4.384  1.00  0.00     0.000 C 
BRANCH  18  19
HETATM   19  C15 UNL     1       1.857   1.544  -4.890  1.00  0.00     0.000 C 
BRANCH  19  20
HETATM   20  C16 UNL     1       1.122   2.419  -5.919  1.00  0.00     0.000 C 
BRANCH  20  21
HETATM   21  C17 UNL     1      -0.097   1.705  -6.524  1.00  0.00     0.000 C 
HETATM   22  C18 UNL     1      -0.863   2.612  -7.495  1.00  0.00     0.000 C 
ENDBRANCH  20  21
ENDBRANCH  19  20
ENDBRANCH  18  19
ENDBRANCH  17  18
ENDBRANCH  16  17
ENDBRANCH  15  16
ENDBRANCH  14  15
ENDBRANCH  13  14
ENDBRANCH  12  13
ENDBRANCH  11  12
ENDBRANCH  10  11
ENDBRANCH   8   9
ENDBRANCH   7   8
ENDBRANCH   5   7
ENDBRANCH   3   5
ENDBRANCH   2   3
ENDBRANCH   1   2
BRANCH   1  23
HETATM   23  C21 UNL     1       7.963  -4.386   1.637  1.00  0.00     0.179 C 
HETATM   24  O7  UNL     1       8.324  -4.197   0.287  1.00  0.00    -0.221 OA
BRANCH  23  25
HETATM   25  C22 UNL     1       7.244  -3.115   2.083  1.00  0.00     0.145 C 
HETATM   26  O3  UNL     1       6.141  -2.914   1.231  1.00  0.00    -0.357 OA
HETATM   27  C23 UNL     1       4.994  -2.716   2.010  1.00  0.00     0.115 C 
HETATM   28  C24 UNL     1       5.250  -3.498   3.294  1.00  0.00     0.032 C 
HETATM   29  C25 UNL     1       6.723  -3.173   3.519  1.00  0.00     0.035 C 
BRANCH  27  30
HETATM   30  C26 UNL     1       4.751  -1.220   2.256  1.00  0.00     0.030 C 
BRANCH  30  31
HETATM   31  C27 UNL     1       3.761  -0.581   1.265  1.00  0.00     0.003 C 
BRANCH  31  32
HETATM   32  C28 UNL     1       3.477   0.887   1.628  1.00  0.00     0.000 C 
BRANCH  32  33
HETATM   33  C29 UNL     1       2.286   1.488   0.860  1.00  0.00     0.003 C 
BRANCH  33  34
HETATM   34  C30 UNL     1       1.998   2.924   1.328  1.00  0.00     0.033 C 
BRANCH  34  35
HETATM   35  C31 UNL     1       0.792   3.600   0.671  1.00  0.00     0.157 C 
HETATM   36  O6  UNL     1       0.697   4.908   1.195  1.00  0.00    -0.223 OA
BRANCH  35  37
HETATM   37  C32 UNL     1      -0.544   2.899   0.929  1.00  0.00     0.064 C 
BRANCH  37  38
HETATM   38  C33 UNL     1      -0.894   1.787  -0.015  1.00  0.00     0.042 A 
HETATM   39  C34 UNL     1      -1.653   0.556   0.282  1.00  0.00     0.292 A 
HETATM   40  O4  UNL     1      -1.872  -0.232  -0.810  1.00  0.00    -0.297 OA
HETATM   41  O5  UNL     1      -2.048   0.268   1.406  1.00  0.00    -0.260 OA
HETATM   42  C35 UNL     1      -1.292   0.453  -1.909  1.00  0.00     0.146 A 
HETATM   43  C36 UNL     1      -0.673   1.706  -1.336  1.00  0.00     0.005 A 
HETATM   44  C37 UNL     1      -2.373   0.789  -2.932  1.00  0.00     0.038 C 
ENDBRANCH  37  38
ENDBRANCH  35  37
ENDBRANCH  34  35
ENDBRANCH  33  34
ENDBRANCH  32  33
ENDBRANCH  31  32
ENDBRANCH  30  31
ENDBRANCH  27  30
ENDBRANCH  23  25
ENDBRANCH   1  23
TORSDOF 27
