REMARK  15 active torsions:
REMARK  status: ('A' for Active; 'I' for Inactive)
REMARK    1  A    between atoms: O1_1  and  C1_2 
REMARK    2  A    between atoms: O1_1  and  C13_24 
REMARK    3  A    between atoms: C2_4  and  C12_22 
REMARK    4  A    between atoms: C5_7  and  O3_8 
REMARK    5  A    between atoms: O3_8  and  C6_9 
REMARK    6  A    between atoms: C7_11  and  C11_18 
REMARK    7  A    between atoms: C27_40  and  C28_41 
REMARK    8  A    between atoms: C28_41  and  C29_42 
REMARK    9  A    between atoms: C28_41  and  C35_48 
REMARK   10  A    between atoms: C29_42  and  C30_43 
REMARK   11  A    between atoms: C30_43  and  C31_44 
REMARK   12  A    between atoms: C35_48  and  C36_49 
REMARK   13  A    between atoms: C37_51  and  C41_58 
REMARK   14  A    between atoms: C41_58  and  O18_59 
REMARK   15  A    between atoms: O18_59  and  C42_60 
ROOT
HETATM    1  C13 UNL     1       1.764  -1.380  -3.124  1.00  0.00     0.118 C 
HETATM    2  C14 UNL     1       2.702  -2.328  -2.313  1.00  0.00     0.028 C 
HETATM    3  C15 UNL     1       4.125  -1.718  -2.039  1.00  0.00     0.033 C 
HETATM    4  C16 UNL     1       4.207  -0.153  -1.929  1.00  0.00     0.003 C 
HETATM    5  C17 UNL     1       3.610   0.449  -3.233  1.00  0.00     0.003 C 
HETATM    6  C18 UNL     1       2.608  -0.442  -3.988  1.00  0.00     0.030 C 
HETATM    7  C19 UNL     1       5.714   0.302  -1.812  1.00  0.00     0.003 C 
HETATM    8  C20 UNL     1       6.538  -0.397  -0.691  1.00  0.00     0.003 C 
HETATM    9  C21 UNL     1       6.369  -1.921  -0.842  1.00  0.00     0.033 C 
HETATM   10  C22 UNL     1       4.914  -2.382  -0.891  1.00  0.00     0.152 C 
HETATM   11  O12 UNL     1       4.963  -3.788  -0.972  1.00  0.00    -0.224 OA
HETATM   12  C23 UNL     1       8.045   0.011  -0.848  1.00  0.00     0.002 C 
HETATM   13  C24 UNL     1       8.109   1.533  -0.533  1.00  0.00     0.030 C 
HETATM   14  C25 UNL     1       7.485   2.275  -1.714  1.00  0.00     0.152 C 
HETATM   15  C26 UNL     1       6.009   1.832  -1.871  1.00  0.00     0.033 C 
HETATM   16  O13 UNL     1       7.509   3.667  -1.527  1.00  0.00    -0.224 OA
HETATM   17  C27 UNL     1       9.451   1.831   0.180  1.00  0.00     0.003 C 
HETATM   18  C48 UNL     1       9.643   0.500   0.932  1.00  0.00     0.000 C 
HETATM   19  C49 UNL     1       9.013  -0.653   0.156  1.00  0.00     0.000 C 
HETATM   20  C50 UNL     1       8.681  -0.324  -2.229  1.00  0.00     0.000 C 
HETATM   21  C51 UNL     1       6.029   0.001   0.721  1.00  0.00     0.000 C 
HETATM   22  C52 UNL     1       3.380   0.407  -0.745  1.00  0.00     0.000 C 
HETATM   23  C53 UNL     1       2.848  -3.607  -3.190  1.00  0.00     0.003 C 
HETATM   24  C54 UNL     1       2.024  -2.780  -0.997  1.00  0.00     0.003 C 
ENDROOT
BRANCH  17  25
HETATM   25  C28 UNL     1       9.584   3.071   1.150  1.00  0.00     0.003 C 
HETATM   26  C47 UNL     1       8.227   3.512   1.767  1.00  0.00     0.000 C 
BRANCH  25  27
HETATM   27  C29 UNL     1      10.086   4.326   0.350  1.00  0.00     0.005 C 
BRANCH  27  28
HETATM   28  C30 UNL     1      11.252   4.133  -0.638  1.00  0.00     0.025 C 
BRANCH  28  29
HETATM   29  C31 UNL     1      11.809   5.429  -1.176  1.00  0.00    -0.035 C 
HETATM   30  C32 UNL     1      12.630   5.538  -2.238  1.00  0.00    -0.048 C 
HETATM   31  C33 UNL     1      13.133   6.883  -2.708  1.00  0.00     0.026 C 
HETATM   32  C34 UNL     1      13.127   4.366  -3.050  1.00  0.00     0.026 C 
ENDBRANCH  28  29
ENDBRANCH  27  28
ENDBRANCH  25  27
BRANCH  25  33
HETATM   33  C35 UNL     1      10.585   2.909   2.360  1.00  0.00     0.032 C 
BRANCH  33  34
HETATM   34  C36 UNL     1      10.424   1.887   3.511  1.00  0.00     0.148 C 
HETATM   35  O14 UNL     1       9.085   1.673   3.878  1.00  0.00    -0.351 OA
HETATM   36  C37 UNL     1       8.921   0.512   4.654  1.00  0.00     0.178 C 
HETATM   37  C38 UNL     1       9.623   0.713   5.989  1.00  0.00     0.214 C 
HETATM   38  C39 UNL     1      11.079   1.065   5.756  1.00  0.00     0.217 C 
HETATM   39  O17 UNL     1       9.560  -0.461   6.762  1.00  0.00    -0.218 OA
HETATM   40  C40 UNL     1      11.191   2.232   4.787  1.00  0.00     0.212 C 
HETATM   41  O16 UNL     1      11.679   1.405   6.979  1.00  0.00    -0.218 OA
HETATM   42  O15 UNL     1      12.555   2.446   4.522  1.00  0.00    -0.218 OA
BRANCH  36  43
HETATM   43  C41 UNL     1       7.437   0.167   4.798  1.00  0.00     0.177 C 
BRANCH  43  44
HETATM   44  O18 UNL     1       7.317  -1.236   4.880  1.00  0.00    -0.326 OA
BRANCH  44  45
HETATM   45  C42 UNL     1       6.093  -1.715   5.385  1.00  0.00     0.270 C 
HETATM   46  O19 UNL     1       5.041  -1.409   4.497  1.00  0.00    -0.326 OA
HETATM   47  C43 UNL     1       5.093  -2.101   3.274  1.00  0.00     0.181 C 
HETATM   48  C44 UNL     1       5.097  -3.603   3.452  1.00  0.00     0.215 C 
HETATM   49  C45 UNL     1       6.286  -3.976   4.308  1.00  0.00     0.220 C 
HETATM   50  O22 UNL     1       5.217  -4.237   2.197  1.00  0.00    -0.218 OA
HETATM   51  C46 UNL     1       6.210  -3.207   5.612  1.00  0.00     0.241 C 
HETATM   52  O21 UNL     1       6.254  -5.356   4.568  1.00  0.00    -0.218 OA
HETATM   53  O20 UNL     1       7.379  -3.473   6.354  1.00  0.00    -0.215 OA
ENDBRANCH  44  45
ENDBRANCH  43  44
ENDBRANCH  36  43
ENDBRANCH  33  34
ENDBRANCH  25  33
ENDBRANCH  17  25
BRANCH   1  54
HETATM   54  O1  UNL     1       0.849  -0.758  -2.266  1.00  0.00    -0.332 OA
BRANCH  54  55
HETATM   55  C1  UNL     1      -0.115   0.120  -2.819  1.00  0.00     0.267 C 
HETATM   56  O2  UNL     1       0.611   1.336  -2.860  1.00  0.00    -0.326 OA
HETATM   57  C2  UNL     1      -0.128   2.456  -3.250  1.00  0.00     0.184 C 
HETATM   58  C3  UNL     1      -1.196   2.707  -2.201  1.00  0.00     0.215 C 
HETATM   59  C4  UNL     1      -2.092   1.493  -2.155  1.00  0.00     0.217 C 
HETATM   60  O10 UNL     1      -1.988   3.820  -2.531  1.00  0.00    -0.218 OA
HETATM   61  C5  UNL     1      -1.290   0.237  -1.846  1.00  0.00     0.207 C 
HETATM   62  O9  UNL     1      -3.075   1.686  -1.169  1.00  0.00    -0.218 OA
BRANCH  57  63
HETATM   63  C12 UNL     1       0.824   3.637  -3.374  1.00  0.00     0.214 C 
HETATM   64  O11 UNL     1       1.718   3.424  -4.449  1.00  0.00    -0.218 OA
ENDBRANCH  57  63
BRANCH  61  65
HETATM   65  O3  UNL     1      -2.240  -0.794  -1.913  1.00  0.00    -0.324 OA
BRANCH  65  66
HETATM   66  C6  UNL     1      -1.810  -2.087  -1.557  1.00  0.00     0.270 C 
HETATM   67  O4  UNL     1      -1.777  -2.779  -2.789  1.00  0.00    -0.326 OA
HETATM   68  C7  UNL     1      -1.448  -4.138  -2.673  1.00  0.00     0.184 C 
HETATM   69  C8  UNL     1      -2.403  -4.848  -1.721  1.00  0.00     0.215 C 
HETATM   70  C9  UNL     1      -2.436  -4.143  -0.383  1.00  0.00     0.220 C 
HETATM   71  O7  UNL     1      -1.994  -6.174  -1.494  1.00  0.00    -0.218 OA
HETATM   72  C10 UNL     1      -2.826  -2.703  -0.625  1.00  0.00     0.241 C 
HETATM   73  O6  UNL     1      -3.380  -4.759   0.455  1.00  0.00    -0.218 OA
HETATM   74  O5  UNL     1      -2.813  -2.021   0.605  1.00  0.00    -0.215 OA
BRANCH  68  75
HETATM   75  C11 UNL     1      -1.487  -4.759  -4.062  1.00  0.00     0.214 C 
HETATM   76  O8  UNL     1      -0.559  -4.105  -4.905  1.00  0.00    -0.218 OA
ENDBRANCH  68  75
ENDBRANCH  65  66
ENDBRANCH  61  65
ENDBRANCH  54  55
ENDBRANCH   1  54
TORSDOF 15
