REMARK  7 active torsions:
REMARK  status: ('A' for Active; 'I' for Inactive)
REMARK    1  A    between atoms: C15_18  and  C16_19 
REMARK    2  A    between atoms: C16_19  and  C17_20 
REMARK    3  A    between atoms: C16_19  and  O4_27 
REMARK    4  A    between atoms: C17_20  and  C18_21 
REMARK    5  A    between atoms: C18_21  and  C19_22 
REMARK    6  A    between atoms: O4_27  and  C24_28 
REMARK    7  A    between atoms: C25_30  and  C29_37 
ROOT
HETATM    1  O1  UNL     1      -3.166  -0.557  -1.569  1.00  0.00    -0.224 OA
HETATM    2  C1  UNL     1      -2.458  -1.127  -2.646  1.00  0.00     0.152 C 
HETATM    3  C2  UNL     1      -1.610  -2.349  -2.234  1.00  0.00     0.031 C 
HETATM    4  C3  UNL     1      -0.115  -1.986  -1.908  1.00  0.00     0.033 C 
HETATM    5  C4  UNL     1       0.184  -0.524  -1.442  1.00  0.00     0.003 C 
HETATM    6  C5  UNL     1      -0.557   0.516  -2.339  1.00  0.00     0.003 C 
HETATM    7  C6  UNL     1      -1.614  -0.046  -3.298  1.00  0.00     0.033 C 
HETATM    8  C7  UNL     1       1.726  -0.211  -1.480  1.00  0.00     0.007 C 
HETATM    9  C8  UNL     1       2.708  -1.407  -1.283  1.00  0.00     0.003 C 
HETATM   10  C9  UNL     1       2.378  -2.529  -2.298  1.00  0.00     0.033 C 
HETATM   11  C10 UNL     1       0.962  -2.490  -2.886  1.00  0.00     0.152 C 
HETATM   12  O2  UNL     1       0.971  -1.727  -4.069  1.00  0.00    -0.224 OA
HETATM   13  C11 UNL     1       4.181  -0.886  -1.505  1.00  0.00     0.007 C 
HETATM   14  C12 UNL     1       4.471   0.144  -0.389  1.00  0.00     0.060 C 
HETATM   15  C13 UNL     1       3.646   1.366  -0.728  1.00  0.00     0.150 C 
HETATM   16  C14 UNL     1       2.150   1.072  -0.712  1.00  0.00     0.065 C 
HETATM   17  O3  UNL     1       4.116   2.454  -0.965  1.00  0.00    -0.296 OA
HETATM   18  C15 UNL     1       5.986   0.170  -0.133  1.00  0.00     0.032 C 
HETATM   19  C30 UNL     1       6.256  -1.356  -0.263  1.00  0.00     0.003 C 
HETATM   20  C31 UNL     1       5.315  -1.925  -1.340  1.00  0.00     0.001 C 
HETATM   21  C32 UNL     1       4.431  -0.223  -2.895  1.00  0.00     0.000 C 
HETATM   22  C33 UNL     1       2.545  -2.021   0.140  1.00  0.00     0.000 C 
HETATM   23  C34 UNL     1      -0.340  -0.335   0.008  1.00  0.00     0.000 C 
HETATM   24  C35 UNL     1      -1.738  -3.385  -3.385  1.00  0.00     0.003 C 
HETATM   25  C36 UNL     1      -2.270  -3.074  -1.026  1.00  0.00     0.003 C 
ENDROOT
BRANCH  18  26
HETATM   26  C16 UNL     1       6.511   0.819   1.196  1.00  0.00     0.096 C 
HETATM   27  C23 UNL     1       5.392   1.485   2.020  1.00  0.00     0.030 C 
BRANCH  26  28
HETATM   28  C17 UNL     1       7.628   1.845   0.901  1.00  0.00     0.032 C 
BRANCH  28  29
HETATM   29  C18 UNL     1       7.203   3.081   0.083  1.00  0.00     0.028 C 
BRANCH  29  30
HETATM   30  C19 UNL     1       8.276   4.141   0.011  1.00  0.00    -0.035 C 
HETATM   31  C20 UNL     1       8.401   5.087  -0.939  1.00  0.00    -0.048 C 
HETATM   32  C21 UNL     1       9.499   6.123  -0.872  1.00  0.00     0.026 C 
HETATM   33  C22 UNL     1       7.483   5.234  -2.129  1.00  0.00     0.026 C 
ENDBRANCH  29  30
ENDBRANCH  28  29
ENDBRANCH  26  28
BRANCH  26  34
HETATM   34  O4  UNL     1       7.032  -0.254   1.933  1.00  0.00    -0.334 OA
BRANCH  34  35
HETATM   35  C24 UNL     1       7.580  -0.047   3.216  1.00  0.00     0.270 C 
HETATM   36  O5  UNL     1       8.979   0.034   3.045  1.00  0.00    -0.326 OA
HETATM   37  C25 UNL     1       9.667   0.138   4.267  1.00  0.00     0.184 C 
HETATM   38  C26 UNL     1       9.403  -1.103   5.115  1.00  0.00     0.215 C 
HETATM   39  C27 UNL     1       7.916  -1.249   5.358  1.00  0.00     0.220 C 
HETATM   40  O8  UNL     1      10.031  -1.016   6.370  1.00  0.00    -0.218 OA
HETATM   41  C28 UNL     1       7.234  -1.287   4.013  1.00  0.00     0.241 C 
HETATM   42  O7  UNL     1       7.666  -2.446   6.049  1.00  0.00    -0.218 OA
HETATM   43  O6  UNL     1       5.843  -1.350   4.201  1.00  0.00    -0.215 OA
BRANCH  37  44
HETATM   44  C29 UNL     1      11.149   0.314   3.974  1.00  0.00     0.214 C 
HETATM   45  O9  UNL     1      11.367   1.560   3.343  1.00  0.00    -0.218 OA
ENDBRANCH  37  44
ENDBRANCH  34  35
ENDBRANCH  26  34
ENDBRANCH  18  26
TORSDOF 7
