REMARK  4 active torsions:
REMARK  status: ('A' for Active; 'I' for Inactive)
REMARK    1  A    between atoms: O1_1  and  C1_2 
REMARK    2  A    between atoms: O1_1  and  C23_30 
REMARK    3  A    between atoms: C10_12  and  O5_24 
REMARK    4  A    between atoms: O5_24  and  C20_25 
ROOT
HETATM    1  C1  UNL     1       6.015  -0.271  -1.540  1.00  0.00     0.154 C 
HETATM    2  C2  UNL     1       5.122  -1.338  -2.164  1.00  0.00     0.180 C 
HETATM    3  O2  UNL     1       5.872  -2.521  -2.326  1.00  0.00    -0.221 OA
HETATM    4  C3  UNL     1       3.875  -1.639  -1.332  1.00  0.00     0.036 C 
HETATM    5  C4  UNL     1       2.984  -0.395  -1.026  1.00  0.00     0.008 C 
HETATM    6  C5  UNL     1       3.940   0.692  -0.439  1.00  0.00     0.035 C 
HETATM    7  C6  UNL     1       5.240   1.038  -1.234  1.00  0.00     0.031 C 
HETATM    8  C7  UNL     1       5.019   1.819  -2.550  1.00  0.00     0.003 C 
HETATM    9  C8  UNL     1       6.172   1.962  -0.398  1.00  0.00     0.003 C 
HETATM   10  C9  UNL     1       3.209   1.875   0.214  1.00  0.00     0.180 C 
HETATM   11  C10 UNL     1       2.231   1.435   1.299  1.00  0.00     0.157 C 
HETATM   12  C11 UNL     1       1.211   0.387   0.823  1.00  0.00     0.063 C 
HETATM   13  C12 UNL     1       1.905  -0.780   0.060  1.00  0.00     0.036 C 
HETATM   14  C13 UNL     1       0.878  -1.866  -0.342  1.00  0.00     0.153 C 
HETATM   15  C14 UNL     1      -0.487  -1.346  -0.815  1.00  0.00     0.037 C 
HETATM   16  C15 UNL     1      -0.979  -0.134  -0.014  1.00  0.00     0.023 C 
HETATM   17  C16 UNL     1       0.079   0.977  -0.050  1.00  0.00     0.009 C 
HETATM   18  C17 UNL     1      -0.981  -0.458   1.451  1.00  0.00    -0.015 C 
HETATM   19  C18 UNL     1       0.353  -0.083   2.032  1.00  0.00     0.173 C 
HETATM   20  O3  UNL     1       0.909  -1.173   2.741  1.00  0.00    -0.219 OA
HETATM   21  C19 UNL     1      -1.992  -1.015   2.127  1.00  0.00    -0.007 C 
HETATM   22  O4  UNL     1       0.655  -2.728   0.759  1.00  0.00    -0.223 OA
HETATM   23  O7  UNL     1       2.544   2.680  -0.725  1.00  0.00    -0.221 OA
HETATM   24  C22 UNL     1       2.320   0.009  -2.360  1.00  0.00     0.000 C 
ENDROOT
BRANCH   1  25
HETATM   25  O1  UNL     1       6.575  -0.783  -0.360  1.00  0.00    -0.302 OA
BRANCH  25  26
HETATM   26  C23 UNL     1       7.875  -1.181  -0.232  1.00  0.00     0.272 C 
HETATM   27  O8  UNL     1       8.300  -1.642   0.806  1.00  0.00    -0.264 OA
HETATM   28  C24 UNL     1       8.792  -0.986  -1.428  1.00  0.00     0.106 C 
ENDBRANCH  25  26
ENDBRANCH   1  25
BRANCH  11  29
HETATM   29  O5  UNL     1       2.971   0.902   2.368  1.00  0.00    -0.302 OA
BRANCH  29  30
HETATM   30  C20 UNL     1       2.830   1.428   3.614  1.00  0.00     0.272 C 
HETATM   31  C21 UNL     1       3.606   0.599   4.617  1.00  0.00     0.106 C 
HETATM   32  O6  UNL     1       2.165   2.399   3.895  1.00  0.00    -0.264 OA
ENDBRANCH  29  30
ENDBRANCH  11  29
TORSDOF 4
