REMARK  1 active torsions:
REMARK  status: ('A' for Active; 'I' for Inactive)
REMARK    1  A    between atoms: C13_15  and  C15_18 
ROOT
HETATM    1  C1  UNL     1       1.556   0.226  -2.240  1.00  0.00     0.096 A 
HETATM    2  C2  UNL     1       1.027  -0.905  -2.736  1.00  0.00     0.024 A 
HETATM    3  C3  UNL     1      -0.161  -1.363  -2.325  1.00  0.00     0.007 A 
HETATM    4  C4  UNL     1      -0.857  -0.690  -1.395  1.00  0.00     0.058 A 
HETATM    5  C5  UNL     1      -0.357   0.446  -0.856  1.00  0.00     0.099 A 
HETATM    6  C6  UNL     1       0.856   0.875  -1.284  1.00  0.00     0.044 A 
HETATM    7  C7  UNL     1       1.394   2.000  -0.773  1.00  0.00     0.002 C 
HETATM    8  C8  UNL     1       2.650   2.358  -1.067  1.00  0.00     0.001 C 
HETATM    9  C9  UNL     1       3.542   1.448  -1.869  1.00  0.00     0.117 C 
HETATM   10  O1  UNL     1       2.779   0.631  -2.711  1.00  0.00    -0.332 OA
HETATM   11  C10 UNL     1       4.501   2.262  -2.742  1.00  0.00     0.035 C 
HETATM   12  C11 UNL     1       4.332   0.554  -0.906  1.00  0.00     0.035 C 
HETATM   13  O2  UNL     1      -1.052   1.175   0.079  1.00  0.00    -0.330 OA
HETATM   14  C12 UNL     1      -2.443   1.037   0.031  1.00  0.00     0.161 C 
HETATM   15  C13 UNL     1      -2.811  -0.438   0.102  1.00  0.00     0.116 C 
HETATM   16  C14 UNL     1      -2.053  -1.193  -0.982  1.00  0.00     0.181 C 
HETATM   17  O3  UNL     1      -2.536  -2.215  -1.419  1.00  0.00    -0.291 OA
ENDROOT
BRANCH  15  18
HETATM   18  C15 UNL     1      -2.586  -1.004   1.498  1.00  0.00     0.013 A 
HETATM   19  C16 UNL     1      -3.596  -1.038   2.392  1.00  0.00     0.130 A 
HETATM   20  C17 UNL     1      -3.363  -1.535   3.620  1.00  0.00     0.054 A 
HETATM   21  O5  UNL     1      -4.840  -0.580   2.084  1.00  0.00    -0.190 OA
HETATM   22  C18 UNL     1      -2.164  -2.000   4.005  1.00  0.00     0.133 A 
HETATM   23  C19 UNL     1      -1.170  -1.953   3.106  1.00  0.00     0.027 A 
HETATM   24  O4  UNL     1      -1.956  -2.494   5.255  1.00  0.00    -0.190 OA
HETATM   25  C20 UNL     1      -1.379  -1.464   1.876  1.00  0.00     0.000 A 
ENDBRANCH  15  18
TORSDOF 1
