REMARK  8 active torsions:
REMARK  status: ('A' for Active; 'I' for Inactive)
REMARK    1  A    between atoms: C1_1  and  C27_37 
REMARK    2  A    between atoms: C5_5  and  O2_7 
REMARK    3  A    between atoms: O2_7  and  C6_8 
REMARK    4  A    between atoms: C18_22  and  C25_30 
REMARK    5  A    between atoms: C19_23  and  C21_25 
REMARK    6  A    between atoms: C21_25  and  C22_26 
REMARK    7  A    between atoms: C21_25  and  C23_28 
REMARK    8  A    between atoms: C25_30  and  O4_31 
ROOT
HETATM    1  C6  UNL     1      -3.047  -0.103  -0.054  1.00  0.00     0.098 A 
HETATM    2  C7  UNL     1      -4.149  -0.857  -0.255  1.00  0.00     0.024 A 
HETATM    3  C8  UNL     1      -4.098  -2.145  -0.635  1.00  0.00     0.004 A 
HETATM    4  C9  UNL     1      -2.917  -2.761  -0.793  1.00  0.00     0.019 A 
HETATM    5  C10 UNL     1      -1.819  -2.042  -0.536  1.00  0.00     0.083 A 
HETATM    6  C11 UNL     1      -1.874  -0.754  -0.163  1.00  0.00     0.037 A 
HETATM    7  C12 UNL     1      -0.594  -0.384   0.014  1.00  0.00    -0.002 A 
HETATM    8  C13 UNL     1       0.171  -1.448  -0.284  1.00  0.00     0.076 A 
HETATM    9  N1  UNL     1      -0.606  -2.402  -0.598  1.00  0.00    -0.248 NA
HETATM   10  C14 UNL     1       1.672  -1.398  -0.287  1.00  0.00     0.125 C 
HETATM   11  N2  UNL     1       2.174  -0.295   0.554  1.00  0.00    -0.343 N 
HETATM   12  C15 UNL     1       1.311   0.724   1.196  1.00  0.00     0.106 C 
HETATM   13  C16 UNL     1       0.001   0.934   0.423  1.00  0.00     0.052 C 
HETATM   14  C17 UNL     1       3.425  -0.097   0.437  1.00  0.00     0.077 C 
HETATM   15  C18 UNL     1       4.306  -1.033   0.027  1.00  0.00     0.073 C 
HETATM   16  C19 UNL     1       3.842  -2.478   0.312  1.00  0.00    -0.029 C 
HETATM   17  C20 UNL     1       2.399  -2.727  -0.154  1.00  0.00     0.051 C 
ENDROOT
BRANCH   1  18
HETATM   18  O2  UNL     1      -3.161   1.192   0.373  1.00  0.00    -0.304 OA
BRANCH  18  19
HETATM   19  C5  UNL     1      -2.897   2.186  -0.589  1.00  0.00     0.274 C 
HETATM   20  C4  UNL     1      -4.018   2.439  -1.572  1.00  0.00     0.241 C 
HETATM   21  C3  UNL     1      -5.186   3.199  -0.975  1.00  0.00     0.220 C 
HETATM   22  O6  UNL     1      -3.489   3.217  -2.624  1.00  0.00    -0.215 OA
HETATM   23  C2  UNL     1      -4.676   4.379  -0.172  1.00  0.00     0.215 C 
HETATM   24  O7  UNL     1      -5.958   2.345  -0.169  1.00  0.00    -0.218 OA
HETATM   25  C1  UNL     1      -3.549   4.022   0.786  1.00  0.00     0.184 C 
HETATM   26  O8  UNL     1      -4.195   5.345  -1.084  1.00  0.00    -0.218 OA
HETATM   27  O1  UNL     1      -2.515   3.343   0.128  1.00  0.00    -0.326 OA
BRANCH  25  28
HETATM   28  C27 UNL     1      -3.969   3.342   2.085  1.00  0.00     0.214 C 
HETATM   29  O9  UNL     1      -4.813   4.201   2.826  1.00  0.00    -0.218 OA
ENDBRANCH  25  28
ENDBRANCH  18  19
ENDBRANCH   1  18
BRANCH  16  30
HETATM   30  C21 UNL     1       4.775  -3.705   0.127  1.00  0.00     0.074 C 
BRANCH  30  31
HETATM   31  C22 UNL     1       4.165  -5.048   0.562  1.00  0.00     0.191 C 
HETATM   32  O3  UNL     1       3.191  -5.511  -0.351  1.00  0.00    -0.220 OA
ENDBRANCH  30  31
BRANCH  30  33
HETATM   33  C23 UNL     1       6.083  -3.632   0.903  1.00  0.00    -0.020 C 
HETATM   34  C24 UNL     1       6.249  -3.144   2.141  1.00  0.00    -0.004 C 
ENDBRANCH  30  33
ENDBRANCH  16  30
BRANCH  15  35
HETATM   35  C25 UNL     1       5.558  -0.686  -0.404  1.00  0.00     0.297 C 
HETATM   36  O5  UNL     1       6.323  -1.603  -0.613  1.00  0.00    -0.259 OA
BRANCH  35  37
HETATM   37  O4  UNL     1       6.086   0.550  -0.704  1.00  0.00    -0.296 OA
HETATM   38  C26 UNL     1       5.332   1.725  -0.870  1.00  0.00     0.185 C 
ENDBRANCH  35  37
ENDBRANCH  15  35
TORSDOF 8
