REMARK  1 active torsions:
REMARK  status: ('A' for Active; 'I' for Inactive)
REMARK    1  A    between atoms: C8_9  and  C10_11 
ROOT
HETATM    1  C10 UNL     1       0.576   0.603   0.611  1.00  0.00     0.028 A 
HETATM    2  C11 UNL     1      -0.459   1.507   0.647  1.00  0.00     0.096 A 
HETATM    3  O2  UNL     1      -1.628   1.209   0.003  1.00  0.00    -0.332 OA
HETATM    4  C12 UNL     1      -2.710   2.089  -0.109  1.00  0.00     0.117 A 
HETATM    5  C13 UNL     1      -2.515   3.341   0.681  1.00  0.00     0.001 A 
HETATM    6  C14 UNL     1      -1.369   3.575   1.320  1.00  0.00     0.002 A 
HETATM    7  C15 UNL     1      -0.349   2.697   1.300  1.00  0.00     0.047 A 
HETATM    8  C16 UNL     1       0.763   3.067   1.963  1.00  0.00     0.133 A 
HETATM    9  C17 UNL     1       1.775   2.200   1.941  1.00  0.00     0.028 A 
HETATM   10  C18 UNL     1       1.665   1.037   1.293  1.00  0.00     0.004 A 
HETATM   11  O3  UNL     1       0.922   4.244   2.631  1.00  0.00    -0.190 OA
HETATM   12  C19 UNL     1      -3.964   1.367   0.402  1.00  0.00     0.035 C 
HETATM   13  C20 UNL     1      -2.882   2.451  -1.590  1.00  0.00     0.035 C 
ENDROOT
BRANCH   1  14
HETATM   14  C8  UNL     1       0.645  -0.635  -0.004  1.00  0.00     0.066 A 
HETATM   15  C7  UNL     1      -0.345  -1.262  -0.729  1.00  0.00     0.300 A 
HETATM   16  O1  UNL     1      -0.218  -2.490  -1.336  1.00  0.00    -0.273 OA
HETATM   17  O4  UNL     1      -1.453  -0.814  -0.916  1.00  0.00    -0.259 OA
HETATM   18  C5  UNL     1       0.954  -3.155  -1.200  1.00  0.00     0.105 A 
HETATM   19  C4  UNL     1       1.960  -2.612  -0.504  1.00  0.00     0.023 A 
HETATM   20  C6  UNL     1       1.131  -4.364  -1.763  1.00  0.00     0.052 A 
HETATM   21  C3  UNL     1       3.116  -3.291  -0.381  1.00  0.00     0.004 A 
HETATM   22  C9  UNL     1       1.766  -1.401   0.047  1.00  0.00     0.007 A 
HETATM   23  C2  UNL     1       3.270  -4.497  -0.947  1.00  0.00     0.028 A 
HETATM   24  C1  UNL     1       2.276  -5.058  -1.653  1.00  0.00     0.133 A 
HETATM   25  O5  UNL     1       2.430  -6.280  -2.229  1.00  0.00    -0.190 OA
ENDBRANCH   1  14
TORSDOF 1
