REMARK  0 active torsions:
REMARK  status: ('A' for Active; 'I' for Inactive)
ROOT
HETATM    1  C1  UNL     1      -3.420  -0.380  -2.774  1.00  0.00     0.033 C 
HETATM    2  C2  UNL     1      -3.806  -1.852  -2.775  1.00  0.00     0.152 C 
HETATM    3  C3  UNL     1      -3.075  -2.643  -1.673  1.00  0.00     0.029 C 
HETATM    4  C4  UNL     1      -3.204  -1.940  -0.276  1.00  0.00     0.006 C 
HETATM    5  C5  UNL     1      -3.139  -0.380  -0.178  1.00  0.00     0.018 C 
HETATM    6  C6  UNL     1      -3.811   0.249  -1.435  1.00  0.00     0.006 C 
HETATM    7  C7  UNL     1      -1.667   0.128  -0.011  1.00  0.00    -0.006 C 
HETATM    8  C8  UNL     1      -0.697  -0.594   0.969  1.00  0.00     0.021 C 
HETATM    9  C9  UNL     1      -0.909  -2.122   0.927  1.00  0.00     0.004 C 
HETATM   10  C10 UNL     1      -2.371  -2.580   0.856  1.00  0.00     0.001 C 
HETATM   11  C11 UNL     1       0.791  -0.195   0.582  1.00  0.00     0.018 C 
HETATM   12  C12 UNL     1       0.883   1.327   0.630  1.00  0.00    -0.042 C 
HETATM   13  C13 UNL     1      -0.196   2.096   0.398  1.00  0.00     0.033 C 
HETATM   14  C14 UNL     1      -1.443   1.636   0.118  1.00  0.00     0.187 C 
HETATM   15  O1  UNL     1      -2.320   2.455  -0.043  1.00  0.00    -0.287 OA
HETATM   16  C15 UNL     1       2.227   2.017   0.822  1.00  0.00     0.021 C 
HETATM   17  C16 UNL     1       3.216   1.301   1.771  1.00  0.00     0.029 C 
HETATM   18  C17 UNL     1       3.217  -0.220   1.506  1.00  0.00     0.003 C 
HETATM   19  C18 UNL     1       1.814  -0.842   1.548  1.00  0.00     0.004 C 
HETATM   20  C19 UNL     1       4.639   1.887   1.586  1.00  0.00     0.125 C 
HETATM   21  C20 UNL     1       5.140   1.814   0.147  1.00  0.00     0.040 C 
HETATM   22  C21 UNL     1       4.286   2.939  -0.435  1.00  0.00     0.081 C 
HETATM   23  C22 UNL     1       2.831   2.450  -0.534  1.00  0.00     0.014 C 
HETATM   24  C23 UNL     1       4.412   3.952   0.690  1.00  0.00     0.271 C 
HETATM   25  O2  UNL     1       4.617   3.265   1.846  1.00  0.00    -0.304 OA
HETATM   26  O3  UNL     1       4.334   5.156   0.595  1.00  0.00    -0.264 OA
HETATM   27  C24 UNL     1       4.820   3.464  -1.772  1.00  0.00     0.010 C 
HETATM   28  C25 UNL     1       2.781   1.536   3.242  1.00  0.00     0.003 C 
HETATM   29  C26 UNL     1       1.208  -0.617  -0.855  1.00  0.00     0.004 C 
HETATM   30  C27 UNL     1      -0.995  -0.140   2.428  1.00  0.00     0.004 C 
HETATM   31  C28 UNL     1      -4.045   0.084   1.001  1.00  0.00     0.004 C 
HETATM   32  C29 UNL     1      -3.710  -4.062  -1.623  1.00  0.00     0.003 C 
HETATM   33  C30 UNL     1      -1.625  -2.873  -2.158  1.00  0.00     0.003 C 
HETATM   34  O4  UNL     1      -5.204  -1.961  -2.627  1.00  0.00    -0.224 OA
ENDROOT
TORSDOF 0
