REMARK  6 active torsions:
REMARK  status: ('A' for Active; 'I' for Inactive)
REMARK    1  A    between atoms: O1_1  and  C1_2 
REMARK    2  A    between atoms: O1_1  and  C25_33 
REMARK    3  A    between atoms: C2_3  and  O2_4 
REMARK    4  A    between atoms: O2_4  and  C3_5 
REMARK    5  A    between atoms: C15_18  and  O6_27 
REMARK    6  A    between atoms: O6_27  and  C22_28 
ROOT
HETATM    1  C1  UNL     1       0.434  -1.789  -1.338  1.00  0.00     0.152 C 
HETATM    2  C2  UNL     1       0.458  -0.288  -1.606  1.00  0.00     0.152 C 
HETATM    3  C5  UNL     1       1.259   0.437  -0.523  1.00  0.00     0.033 C 
HETATM    4  C6  UNL     1       2.763   0.031  -0.465  1.00  0.00     0.007 C 
HETATM    5  C7  UNL     1       2.791  -1.529  -0.352  1.00  0.00     0.032 C 
HETATM    6  C8  UNL     1       1.866  -2.376  -1.292  1.00  0.00     0.030 C 
HETATM    7  C9  UNL     1       1.745  -3.840  -0.769  1.00  0.00     0.003 C 
HETATM    8  C10 UNL     1       2.423  -2.524  -2.728  1.00  0.00     0.003 C 
HETATM    9  C11 UNL     1       4.165  -2.157  -0.162  1.00  0.00     0.142 A 
HETATM   10  C12 UNL     1       5.069  -1.522   0.684  1.00  0.00     0.145 A 
HETATM   11  C13 UNL     1       4.662  -0.227   1.382  1.00  0.00     0.064 C 
HETATM   12  C14 UNL     1       3.464   0.632   0.815  1.00  0.00     0.033 C 
HETATM   13  C15 UNL     1       3.790   2.154   0.771  1.00  0.00     0.127 C 
HETATM   14  C16 UNL     1       4.482   2.672   2.045  1.00  0.00     0.065 C 
HETATM   15  C17 UNL     1       5.407   1.633   2.663  1.00  0.00     0.147 C 
HETATM   16  C18 UNL     1       5.906   0.681   1.578  1.00  0.00     0.040 C 
HETATM   17  C19 UNL     1       4.642   0.715   3.582  1.00  0.00     0.013 C 
HETATM   18  C20 UNL     1       4.425  -0.588   2.874  1.00  0.00     0.175 C 
HETATM   19  O4  UNL     1       3.155  -1.153   3.123  1.00  0.00    -0.219 OA
HETATM   20  C21 UNL     1       4.225   1.012   4.819  1.00  0.00    -0.004 C 
HETATM   21  O5  UNL     1       6.481   2.237   3.344  1.00  0.00    -0.222 OA
HETATM   22  O8  UNL     1       5.294  -1.356  -0.823  1.00  0.00    -0.354 OA
HETATM   23  C24 UNL     1       3.420   0.621  -1.739  1.00  0.00     0.000 C 
ENDROOT
BRANCH   1  24
HETATM   24  O1  UNL     1      -0.222  -2.010  -0.117  1.00  0.00    -0.302 OA
BRANCH  24  25
HETATM   25  C25 UNL     1      -1.436  -2.617   0.018  1.00  0.00     0.272 C 
HETATM   26  O9  UNL     1      -1.938  -2.804   1.107  1.00  0.00    -0.264 OA
HETATM   27  C26 UNL     1      -2.155  -3.040  -1.250  1.00  0.00     0.106 C 
ENDBRANCH  24  25
ENDBRANCH   1  24
BRANCH   2  28
HETATM   28  O2  UNL     1      -0.862   0.182  -1.630  1.00  0.00    -0.302 OA
BRANCH  28  29
HETATM   29  C3  UNL     1      -1.151   1.258  -2.412  1.00  0.00     0.272 C 
HETATM   30  C4  UNL     1      -2.621   1.611  -2.301  1.00  0.00     0.106 C 
HETATM   31  O3  UNL     1      -0.356   1.848  -3.108  1.00  0.00    -0.264 OA
ENDBRANCH  28  29
ENDBRANCH   2  28
BRANCH  13  32
HETATM   32  O6  UNL     1       2.624   2.905   0.592  1.00  0.00    -0.304 OA
BRANCH  32  33
HETATM   33  C22 UNL     1       2.543   4.047  -0.149  1.00  0.00     0.272 C 
HETATM   34  O7  UNL     1       1.507   4.670  -0.245  1.00  0.00    -0.264 OA
HETATM   35  C23 UNL     1       3.802   4.510  -0.862  1.00  0.00     0.106 C 
ENDBRANCH  32  33
ENDBRANCH  13  32
TORSDOF 6
