REMARK  4 active torsions:
REMARK  status: ('A' for Active; 'I' for Inactive)
REMARK    1  A    between atoms: C10_11  and  O5_26 
REMARK    2  A    between atoms: C13_14  and  O3_22 
REMARK    3  A    between atoms: O3_22  and  C20_23 
REMARK    4  A    between atoms: O5_26  and  C22_27 
ROOT
HETATM    1  O1  UNL     1       6.514  -0.642  -0.387  1.00  0.00    -0.223 OA
HETATM    2  C1  UNL     1       6.019  -0.106  -1.594  1.00  0.00     0.155 C 
HETATM    3  C2  UNL     1       5.140  -1.164  -2.258  1.00  0.00     0.034 C 
HETATM    4  C3  UNL     1       3.833  -1.423  -1.488  1.00  0.00     0.006 C 
HETATM    5  C4  UNL     1       2.977  -0.155  -1.216  1.00  0.00     0.021 C 
HETATM    6  C5  UNL     1       3.934   0.911  -0.613  1.00  0.00    -0.006 C 
HETATM    7  C6  UNL     1       5.277   1.221  -1.331  1.00  0.00     0.046 C 
HETATM    8  C7  UNL     1       5.155   2.005  -2.659  1.00  0.00     0.007 C 
HETATM    9  C8  UNL     1       6.155   2.107  -0.405  1.00  0.00     0.007 C 
HETATM   10  C9  UNL     1       3.129   2.103  -0.116  1.00  0.00     0.193 C 
HETATM   11  C10 UNL     1       2.195   1.777   1.048  1.00  0.00     0.191 C 
HETATM   12  C11 UNL     1       1.186   0.721   0.574  1.00  0.00     0.091 C 
HETATM   13  C12 UNL     1       1.851  -0.484  -0.158  1.00  0.00     0.041 C 
HETATM   14  C13 UNL     1       0.789  -1.535  -0.586  1.00  0.00     0.125 C 
HETATM   15  C14 UNL     1      -0.539  -0.936  -1.095  1.00  0.00     0.035 C 
HETATM   16  C15 UNL     1      -1.021   0.270  -0.278  1.00  0.00     0.028 C 
HETATM   17  C16 UNL     1       0.073   1.345  -0.299  1.00  0.00     0.015 C 
HETATM   18  C17 UNL     1      -1.029  -0.051   1.190  1.00  0.00     0.012 C 
HETATM   19  C18 UNL     1       0.324   0.183   1.733  1.00  0.00     0.171 C 
HETATM   20  O2  UNL     1       0.686  -0.044   2.879  1.00  0.00    -0.292 OA
HETATM   21  C19 UNL     1      -2.062  -0.508   1.917  1.00  0.00    -0.002 C 
HETATM   22  O7  UNL     1       3.199   3.223  -0.568  1.00  0.00    -0.289 OA
HETATM   23  C24 UNL     1       2.374   0.320  -2.553  1.00  0.00     0.004 C 
ENDROOT
BRANCH  11  24
HETATM   24  O5  UNL     1       2.953   1.299   2.140  1.00  0.00    -0.296 OA
BRANCH  24  25
HETATM   25  C22 UNL     1       2.843   1.899   3.357  1.00  0.00     0.273 C 
HETATM   26  C23 UNL     1       3.640   1.122   4.385  1.00  0.00     0.106 C 
HETATM   27  O6  UNL     1       2.190   2.890   3.592  1.00  0.00    -0.264 OA
ENDBRANCH  24  25
ENDBRANCH  11  24
BRANCH  14  28
HETATM   28  O3  UNL     1       0.480  -2.351   0.517  1.00  0.00    -0.304 OA
BRANCH  28  29
HETATM   29  C20 UNL     1       0.844  -3.660   0.527  1.00  0.00     0.272 C 
HETATM   30  C21 UNL     1       0.378  -4.308   1.816  1.00  0.00     0.106 C 
HETATM   31  O4  UNL     1       1.445  -4.231  -0.354  1.00  0.00    -0.264 OA
ENDBRANCH  28  29
ENDBRANCH  14  28
TORSDOF 4
