REMARK  2 active torsions:
REMARK  status: ('A' for Active; 'I' for Inactive)
REMARK    1  A    between atoms: C11_12  and  O3_20 
REMARK    2  A    between atoms: O3_20  and  C18_21 
ROOT
HETATM    1  C1  UNL     1      -2.350  -0.437   3.247  1.00  0.00     0.065 C 
HETATM    2  C2  UNL     1      -2.632  -1.824   2.701  1.00  0.00     0.150 C 
HETATM    3  C3  UNL     1      -1.966  -2.343   1.421  1.00  0.00     0.052 C 
HETATM    4  C4  UNL     1      -0.734  -1.484   1.017  1.00  0.00     0.009 C 
HETATM    5  C5  UNL     1      -0.776   0.052   1.287  1.00  0.00     0.001 C 
HETATM    6  C6  UNL     1      -1.014   0.179   2.817  1.00  0.00     0.008 C 
HETATM    7  C7  UNL     1       0.608   0.655   0.884  1.00  0.00     0.012 C 
HETATM    8  C8  UNL     1       1.038   0.352  -0.587  1.00  0.00     0.109 C 
HETATM    9  C9  UNL     1       0.284  -0.807  -1.256  1.00  0.00     0.161 C 
HETATM   10  C10 UNL     1      -0.029  -1.934  -0.282  1.00  0.00     0.034 C 
HETATM   11  O1  UNL     1      -0.936  -0.429  -1.850  1.00  0.00    -0.223 OA
HETATM   12  C11 UNL     1       1.139   1.647  -1.427  1.00  0.00     0.137 C 
HETATM   13  C12 UNL     1       2.349   2.322  -0.768  1.00  0.00     0.053 C 
HETATM   14  C13 UNL     1       2.009   2.831   0.641  1.00  0.00     0.007 C 
HETATM   15  C14 UNL     1       0.759   2.156   1.230  1.00  0.00     0.001 C 
HETATM   16  C15 UNL     1       3.260   1.129  -0.645  1.00  0.00     0.015 C 
HETATM   17  C16 UNL     1       2.538  -0.010  -0.514  1.00  0.00     0.173 C 
HETATM   18  O2  UNL     1       2.991  -1.121  -0.372  1.00  0.00    -0.291 OA
HETATM   19  C17 UNL     1       4.599   1.169  -0.644  1.00  0.00    -0.002 C 
HETATM   20  C20 UNL     1      -1.911   0.865   0.619  1.00  0.00     0.000 C 
HETATM   21  C21 UNL     1      -1.508  -3.793   1.736  1.00  0.00     0.007 C 
HETATM   22  C22 UNL     1      -3.058  -2.463   0.334  1.00  0.00     0.007 C 
HETATM   23  O5  UNL     1      -3.447  -2.506   3.284  1.00  0.00    -0.296 OA
ENDROOT
BRANCH  12  24
HETATM   24  O3  UNL     1       1.473   1.378  -2.764  1.00  0.00    -0.303 OA
BRANCH  24  25
HETATM   25  C18 UNL     1       0.509   1.496  -3.715  1.00  0.00     0.272 C 
HETATM   26  C19 UNL     1       1.082   1.229  -5.090  1.00  0.00     0.106 C 
HETATM   27  O4  UNL     1      -0.650   1.756  -3.485  1.00  0.00    -0.264 OA
ENDBRANCH  24  25
ENDBRANCH  12  24
TORSDOF 2
