REMARK  3 active torsions:
REMARK  status: ('A' for Active; 'I' for Inactive)
REMARK    1  A    between atoms: C8_9  and  O3_15 
REMARK    2  A    between atoms: C9_10  and  C12_13 
REMARK    3  A    between atoms: C15_19  and  C18_22 
ROOT
HETATM    1  C1  UNL     1      -1.510   1.942   0.279  1.00  0.00     0.066 C 
HETATM    2  C2  UNL     1      -1.423   0.438   0.058  1.00  0.00    -0.046 C 
HETATM    3  C3  UNL     1      -0.023  -0.132   0.205  1.00  0.00     0.025 C 
HETATM    4  C4  UNL     1       0.911   0.532  -0.834  1.00  0.00     0.042 C 
HETATM    5  C5  UNL     1       0.965   2.047  -0.516  1.00  0.00     0.068 C 
HETATM    6  C6  UNL     1      -0.404   2.699  -0.444  1.00  0.00     0.153 C 
HETATM    7  O1  UNL     1      -0.596   3.795  -0.923  1.00  0.00    -0.296 OA
HETATM    8  C7  UNL     1       2.325  -0.095  -0.836  1.00  0.00     0.184 C 
HETATM    9  C8  UNL     1       3.041  -0.269   0.512  1.00  0.00     0.171 C 
HETATM   10  C9  UNL     1       2.498  -1.368   1.433  1.00  0.00     0.045 C 
HETATM   11  C10 UNL     1       1.310  -1.985   1.277  1.00  0.00    -0.024 C 
HETATM   12  C11 UNL     1       0.208  -1.640   0.306  1.00  0.00     0.030 C 
HETATM   13  O4  UNL     1       3.133   0.683  -1.697  1.00  0.00    -0.221 OA
HETATM   14  C14 UNL     1       0.315   0.357  -2.256  1.00  0.00     0.003 C 
HETATM   15  C15 UNL     1      -2.645  -0.078  -0.190  1.00  0.00    -0.052 C 
HETATM   16  C16 UNL     1      -3.704   1.006  -0.138  1.00  0.00     0.022 C 
HETATM   17  C17 UNL     1      -2.883   2.286  -0.328  1.00  0.00     0.015 C 
HETATM   18  C21 UNL     1      -1.476   2.312   1.771  1.00  0.00     0.011 C 
ENDROOT
BRANCH  15  19
HETATM   19  C18 UNL     1      -3.185  -1.474  -0.430  1.00  0.00     0.018 C 
HETATM   20  C19 UNL     1      -2.475  -2.325  -1.491  1.00  0.00     0.004 C 
HETATM   21  C20 UNL     1      -3.488  -2.219   0.879  1.00  0.00     0.004 C 
ENDBRANCH  15  19
BRANCH   9  22
HETATM   22  O3  UNL     1       4.399  -0.581   0.222  1.00  0.00    -0.347 OA
HETATM   23  C13 UNL     1       5.292   0.486   0.468  1.00  0.00     0.175 C 
ENDBRANCH   9  22
BRANCH  10  24
HETATM   24  C12 UNL     1       3.244  -1.759   2.505  1.00  0.00     0.232 C 
HETATM   25  O2  UNL     1       4.298  -1.272   2.838  1.00  0.00    -0.283 OA
ENDBRANCH  10  24
TORSDOF 3
