REMARK  8 active torsions:
REMARK  status: ('A' for Active; 'I' for Inactive)
REMARK    1  A    between atoms: C4_4  and  C7_8 
REMARK    2  A    between atoms: C7_8  and  C8_9 
REMARK    3  A    between atoms: C8_9  and  C9_10 
REMARK    4  A    between atoms: C11_12  and  O3_22 
REMARK    5  A    between atoms: C12_13  and  C15_17 
REMARK    6  A    between atoms: C15_17  and  C16_18 
REMARK    7  A    between atoms: O3_22  and  C20_23 
REMARK    8  A    between atoms: C20_23  and  C21_24 
ROOT
HETATM    1  C9  UNL     1       1.089   0.805   0.070  1.00  0.00    -0.018 A 
HETATM    2  C10 UNL     1      -0.237   0.860  -0.125  1.00  0.00     0.020 A 
HETATM    3  C11 UNL     1      -1.064  -0.176   0.107  1.00  0.00     0.092 A 
HETATM    4  C12 UNL     1      -0.541  -1.302   0.643  1.00  0.00     0.030 A 
HETATM    5  C13 UNL     1       0.790  -1.389   0.864  1.00  0.00     0.129 A 
HETATM    6  C14 UNL     1       1.578  -0.341   0.567  1.00  0.00     0.023 A 
HETATM    7  O2  UNL     1       1.367  -2.492   1.416  1.00  0.00    -0.190 OA
ENDROOT
BRANCH   1   8
HETATM    8  C8  UNL     1       1.924   2.034  -0.236  1.00  0.00     0.031 C 
BRANCH   8   9
HETATM    9  C7  UNL     1       3.448   1.913  -0.092  1.00  0.00     0.031 C 
BRANCH   9  10
HETATM   10  C4  UNL     1       4.260   3.152  -0.430  1.00  0.00    -0.020 A 
HETATM   11  C3  UNL     1       5.603   3.065  -0.441  1.00  0.00    -0.004 A 
HETATM   12  C2  UNL     1       6.363   4.131  -0.729  1.00  0.00     0.002 A 
HETATM   13  C1  UNL     1       5.785   5.307  -1.011  1.00  0.00     0.027 A 
HETATM   14  C6  UNL     1       4.447   5.433  -1.011  1.00  0.00     0.131 A 
HETATM   15  C5  UNL     1       3.711   4.346  -0.720  1.00  0.00     0.023 A 
HETATM   16  O1  UNL     1       3.863   6.628  -1.297  1.00  0.00    -0.190 OA
ENDBRANCH   9  10
ENDBRANCH   8   9
ENDBRANCH   1   8
BRANCH   3  17
HETATM   17  O3  UNL     1      -2.415   0.002  -0.061  1.00  0.00    -0.326 OA
BRANCH  17  18
HETATM   18  C20 UNL     1      -2.855  -0.087  -1.402  1.00  0.00     0.174 C 
BRANCH  18  19
HETATM   19  C21 UNL     1      -4.290   0.368  -1.493  1.00  0.00    -0.002 C 
HETATM   20  C22 UNL     1      -5.389  -0.405  -1.447  1.00  0.00    -0.045 C 
HETATM   21  C23 UNL     1      -6.771   0.202  -1.540  1.00  0.00     0.026 C 
HETATM   22  C24 UNL     1      -5.375  -1.906  -1.292  1.00  0.00     0.026 C 
ENDBRANCH  18  19
ENDBRANCH  17  18
ENDBRANCH   3  17
BRANCH   4  23
HETATM   23  C15 UNL     1      -1.475  -2.445   1.019  1.00  0.00     0.056 C 
BRANCH  23  24
HETATM   24  C16 UNL     1      -0.897  -3.832   0.895  1.00  0.00    -0.030 C 
HETATM   25  C17 UNL     1      -0.903  -4.806   1.823  1.00  0.00    -0.048 C 
HETATM   26  C18 UNL     1      -0.253  -6.144   1.550  1.00  0.00     0.026 C 
HETATM   27  C19 UNL     1      -1.520  -4.698   3.198  1.00  0.00     0.026 C 
ENDBRANCH  23  24
ENDBRANCH   4  23
TORSDOF 8
