REMARK  4 active torsions:
REMARK  status: ('A' for Active; 'I' for Inactive)
REMARK    1  A    between atoms: C2_2  and  O8_44 
REMARK    2  A    between atoms: C3_3  and  C14_18 
REMARK    3  A    between atoms: C17_21  and  C32_39 
REMARK    4  A    between atoms: C32_39  and  C33_40 
ROOT
HETATM    1  C14 UNL     1      -2.447   0.231   0.635  1.00  0.00     0.009 A 
HETATM    2  C15 UNL     1      -3.482  -0.318   1.300  1.00  0.00     0.000 A 
HETATM    3  C16 UNL     1      -3.516  -1.623   1.581  1.00  0.00    -0.002 A 
HETATM    4  C17 UNL     1      -2.505  -2.424   1.215  1.00  0.00     0.005 A 
HETATM    5  C18 UNL     1      -1.460  -1.904   0.534  1.00  0.00     0.099 A 
HETATM    6  C19 UNL     1      -1.443  -0.585   0.223  1.00  0.00     0.062 A 
HETATM    7  C20 UNL     1      -0.403  -0.109  -0.531  1.00  0.00     0.199 A 
HETATM    8  C21 UNL     1       0.644  -0.926  -0.835  1.00  0.00     0.064 A 
HETATM    9  C22 UNL     1       0.606  -2.217  -0.474  1.00  0.00     0.103 A 
HETATM   10  O5  UNL     1      -0.470  -2.759   0.150  1.00  0.00    -0.307 OA
HETATM   11  C23 UNL     1       1.670  -2.985  -0.767  1.00  0.00     0.027 A 
HETATM   12  C24 UNL     1       2.760  -2.505  -1.390  1.00  0.00     0.024 A 
HETATM   13  C25 UNL     1       2.816  -1.206  -1.742  1.00  0.00     0.094 A 
HETATM   14  C26 UNL     1       1.734  -0.452  -1.468  1.00  0.00     0.029 A 
HETATM   15  O6  UNL     1       3.893  -0.623  -2.357  1.00  0.00    -0.332 OA
HETATM   16  C27 UNL     1       4.892  -1.452  -2.888  1.00  0.00     0.117 C 
HETATM   17  C28 UNL     1       4.867  -2.842  -2.303  1.00  0.00     0.001 C 
HETATM   18  C29 UNL     1       3.808  -3.308  -1.633  1.00  0.00    -0.000 C 
HETATM   19  C30 UNL     1       6.245  -0.795  -2.595  1.00  0.00     0.035 C 
HETATM   20  C31 UNL     1       4.674  -1.559  -4.401  1.00  0.00     0.035 C 
HETATM   21  O7  UNL     1      -0.369   1.028  -0.952  1.00  0.00    -0.286 OA
ENDROOT
BRANCH   1  22
HETATM   22  C3  UNL     1      -2.489   1.580   0.497  1.00  0.00     0.048 A 
HETATM   23  C2  UNL     1      -3.574   2.150  -0.076  1.00  0.00     0.123 A 
HETATM   24  C1  UNL     1      -3.570   3.494  -0.209  1.00  0.00     0.178 A 
HETATM   25  C6  UNL     1      -2.538   4.246   0.226  1.00  0.00     0.163 A 
HETATM   26  O9  UNL     1      -4.624   4.145  -0.779  1.00  0.00    -0.186 OA
HETATM   27  C5  UNL     1      -1.476   3.656   0.820  1.00  0.00     0.089 A 
HETATM   28  O1  UNL     1      -2.669   5.595   0.054  1.00  0.00    -0.188 OA
HETATM   29  C4  UNL     1      -1.462   2.317   0.976  1.00  0.00     0.107 A 
HETATM   30  C7  UNL     1      -0.399   4.382   1.248  1.00  0.00     0.203 C 
HETATM   31  O2  UNL     1      -0.455   1.687   1.653  1.00  0.00    -0.307 OA
HETATM   32  C9  UNL     1       0.644   2.424   1.958  1.00  0.00     0.105 A 
HETATM   33  C8  UNL     1       0.690   3.759   1.787  1.00  0.00     0.087 A 
HETATM   34  C10 UNL     1       1.717   1.791   2.466  1.00  0.00     0.025 A 
HETATM   35  C13 UNL     1       1.798   4.458   2.133  1.00  0.00     0.136 A 
HETATM   36  C12 UNL     1       2.850   3.788   2.635  1.00  0.00     0.028 A 
HETATM   37  O3  UNL     1       1.925   5.809   1.991  1.00  0.00    -0.190 OA
HETATM   38  C11 UNL     1       2.825   2.461   2.804  1.00  0.00     0.004 A 
HETATM   39  O4  UNL     1      -0.379   5.583   1.110  1.00  0.00    -0.286 OA
BRANCH  23  40
HETATM   40  O8  UNL     1      -4.569   1.328  -0.569  1.00  0.00    -0.326 OA
HETATM   41  C37 UNL     1      -5.296   1.688  -1.720  1.00  0.00     0.181 C 
ENDBRANCH  23  40
ENDBRANCH   1  22
BRANCH   4  42
HETATM   42  C32 UNL     1      -2.607  -3.906   1.538  1.00  0.00     0.054 C 
BRANCH  42  43
HETATM   43  C33 UNL     1      -1.321  -4.536   2.010  1.00  0.00    -0.030 C 
HETATM   44  C34 UNL     1      -0.650  -5.553   1.438  1.00  0.00    -0.048 C 
HETATM   45  C35 UNL     1       0.651  -6.053   2.024  1.00  0.00     0.026 C 
HETATM   46  C36 UNL     1      -1.071  -6.284   0.185  1.00  0.00     0.026 C 
ENDBRANCH  42  43
ENDBRANCH   4  42
TORSDOF 4
