REMARK  2 active torsions:
REMARK  status: ('A' for Active; 'I' for Inactive)
REMARK    1  A    between atoms: C10_11  and  C14_17 
REMARK    2  A    between atoms: C14_17  and  C17_20 
ROOT
HETATM    1  C1  UNL     1      -0.240   3.915  -2.772  1.00  0.00     0.002 A 
HETATM    2  C2  UNL     1      -0.308   4.270  -1.483  1.00  0.00     0.029 A 
HETATM    3  C3  UNL     1      -0.304   3.342  -0.513  1.00  0.00     0.154 A 
HETATM    4  C4  UNL     1      -0.229   2.034  -0.840  1.00  0.00     0.128 A 
HETATM    5  C5  UNL     1      -0.157   1.673  -2.133  1.00  0.00     0.064 A 
HETATM    6  C6  UNL     1      -0.166   2.616  -3.095  1.00  0.00     0.005 A 
HETATM    7  C7  UNL     1      -0.071   0.353  -2.459  1.00  0.00     0.202 A 
HETATM    8  C8  UNL     1      -0.041  -0.589  -1.470  1.00  0.00     0.089 A 
HETATM    9  C9  UNL     1      -0.115  -0.199  -0.175  1.00  0.00     0.102 A 
HETATM   10  O1  UNL     1      -0.228   1.115   0.159  1.00  0.00    -0.305 OA
HETATM   11  C10 UNL     1      -0.073  -1.128   0.810  1.00  0.00     0.006 A 
HETATM   12  C11 UNL     1       0.054  -2.417   0.450  1.00  0.00     0.028 A 
HETATM   13  C12 UNL     1       0.119  -2.818  -0.824  1.00  0.00     0.156 A 
HETATM   14  C13 UNL     1       0.070  -1.896  -1.800  1.00  0.00     0.161 A 
HETATM   15  O2  UNL     1       0.148  -2.355  -3.083  1.00  0.00    -0.188 OA
HETATM   16  O3  UNL     1       0.242  -4.139  -1.122  1.00  0.00    -0.188 OA
HETATM   17  O4  UNL     1      -0.011   0.057  -3.633  1.00  0.00    -0.286 OA
HETATM   18  O5  UNL     1      -0.374   3.727   0.791  1.00  0.00    -0.188 OA
ENDROOT
BRANCH  11  19
HETATM   19  C14 UNL     1      -0.138  -0.832   2.321  1.00  0.00     0.039 C 
HETATM   20  C15 UNL     1      -1.352  -1.579   2.929  1.00  0.00     0.009 C 
HETATM   21  C16 UNL     1      -0.278   0.634   2.789  1.00  0.00     0.009 C 
BRANCH  19  22
HETATM   22  C17 UNL     1       1.157  -1.350   2.925  1.00  0.00    -0.023 C 
HETATM   23  C18 UNL     1       2.371  -0.927   2.543  1.00  0.00    -0.005 C 
ENDBRANCH  19  22
ENDBRANCH  11  19
TORSDOF 2
