REMARK  1 active torsions:
REMARK  status: ('A' for Active; 'I' for Inactive)
REMARK    1  A    between atoms: C21_22  and  C22_23 
ROOT
HETATM    1  C1  UNL     1      -3.572  -1.729  -3.086  1.00  0.00     0.097 C 
HETATM    2  C2  UNL     1      -4.399  -2.552  -2.122  1.00  0.00     0.152 C 
HETATM    3  C3  UNL     1      -3.607  -3.327  -1.070  1.00  0.00     0.052 C 
HETATM    4  C4  UNL     1      -2.288  -2.558  -0.761  1.00  0.00     0.009 C 
HETATM    5  C5  UNL     1      -2.346  -1.003  -0.898  1.00  0.00     0.029 C 
HETATM    6  C6  UNL     1      -2.731  -0.667  -2.374  1.00  0.00     0.159 C 
HETATM    7  O1  UNL     1      -3.430   0.557  -2.450  1.00  0.00    -0.223 OA
HETATM    8  C7  UNL     1      -0.915  -0.414  -0.601  1.00  0.00     0.002 C 
HETATM    9  C8  UNL     1      -0.151  -0.888   0.679  1.00  0.00     0.000 C 
HETATM   10  C9  UNL     1      -0.230  -2.433   0.746  1.00  0.00     0.000 C 
HETATM   11  C10 UNL     1      -1.639  -3.012   0.559  1.00  0.00     0.001 C 
HETATM   12  C11 UNL     1       1.369  -0.409   0.613  1.00  0.00     0.000 C 
HETATM   13  C12 UNL     1       1.368   1.152   0.568  1.00  0.00     0.000 C 
HETATM   14  C13 UNL     1       0.638   1.664  -0.683  1.00  0.00     0.000 C 
HETATM   15  C14 UNL     1      -0.793   1.115  -0.790  1.00  0.00     0.000 C 
HETATM   16  C15 UNL     1       2.774   1.748   0.739  1.00  0.00     0.004 C 
HETATM   17  C16 UNL     1       3.418   1.306   2.071  1.00  0.00     0.000 C 
HETATM   18  C17 UNL     1       3.581  -0.221   2.030  1.00  0.00     0.000 C 
HETATM   19  C18 UNL     1       2.221  -0.918   1.821  1.00  0.00     0.000 C 
HETATM   20  C19 UNL     1       4.737   2.101   2.018  1.00  0.00     0.000 C 
HETATM   21  C20 UNL     1       4.332   3.475   1.446  1.00  0.00     0.004 C 
HETATM   22  C21 UNL     1       2.969   3.275   0.742  1.00  0.00     0.018 C 
HETATM   23  C25 UNL     1       2.666   1.726   3.355  1.00  0.00     0.000 C 
HETATM   24  C26 UNL     1       2.124  -0.978  -0.630  1.00  0.00     0.000 C 
HETATM   25  C27 UNL     1      -0.849  -0.341   1.958  1.00  0.00     0.000 C 
HETATM   26  C28 UNL     1      -3.440  -0.414   0.022  1.00  0.00     0.003 C 
HETATM   27  C29 UNL     1      -4.513  -3.594   0.153  1.00  0.00     0.007 C 
HETATM   28  C30 UNL     1      -3.299  -4.707  -1.702  1.00  0.00     0.007 C 
HETATM   29  O2  UNL     1      -5.601  -2.635  -2.239  1.00  0.00    -0.296 OA
ENDROOT
BRANCH  22  30
HETATM   30  C22 UNL     1       2.919   3.999  -0.588  1.00  0.00    -0.044 C 
HETATM   31  C23 UNL     1       2.170   5.310  -0.600  1.00  0.00     0.026 C 
HETATM   32  C24 UNL     1       3.552   3.556  -1.687  1.00  0.00    -0.009 C 
ENDBRANCH  22  30
TORSDOF 1
