REMARK  7 active torsions:
REMARK  status: ('A' for Active; 'I' for Inactive)
REMARK    1  A    between atoms: C1_1  and  C21_32 
REMARK    2  A    between atoms: C4_4  and  O4_18 
REMARK    3  A    between atoms: C5_5  and  O2_7 
REMARK    4  A    between atoms: O2_7  and  C6_8 
REMARK    5  A    between atoms: C6_8  and  C8_11 
REMARK    6  A    between atoms: O4_18  and  C14_19 
REMARK    7  A    between atoms: C14_19  and  C15_21 
ROOT
HETATM    1  C6  UNL     1       2.136   2.480  -0.406  1.00  0.00     0.230 C 
HETATM    2  C7  UNL     1       3.608   2.587  -0.562  1.00  0.00     0.108 C 
HETATM    3  N1  UNL     1       4.760   2.689  -0.645  1.00  0.00    -0.193 NA
ENDROOT
BRANCH   1   4
HETATM    4  O2  UNL     1       1.576   1.791  -1.521  1.00  0.00    -0.312 OA
BRANCH   4   5
HETATM    5  C5  UNL     1       0.158   1.765  -1.529  1.00  0.00     0.268 C 
HETATM    6  C4  UNL     1      -0.378   0.413  -1.087  1.00  0.00     0.213 C 
HETATM    7  C3  UNL     1      -1.895   0.439  -1.178  1.00  0.00     0.217 C 
HETATM    8  C2  UNL     1      -2.360   0.966  -2.528  1.00  0.00     0.215 C 
HETATM    9  O9  UNL     1      -2.392   1.261  -0.149  1.00  0.00    -0.218 OA
HETATM   10  C1  UNL     1      -1.591   2.184  -3.036  1.00  0.00     0.184 C 
HETATM   11  O10 UNL     1      -2.242  -0.075  -3.472  1.00  0.00    -0.218 OA
HETATM   12  O1  UNL     1      -0.205   2.051  -2.860  1.00  0.00    -0.326 OA
BRANCH   6  13
HETATM   13  O4  UNL     1       0.153  -0.605  -1.883  1.00  0.00    -0.293 OA
BRANCH  13  14
HETATM   14  C14 UNL     1       0.795  -1.731  -1.420  1.00  0.00     0.296 C 
HETATM   15  O5  UNL     1       1.486  -2.279  -2.259  1.00  0.00    -0.259 OA
BRANCH  14  16
HETATM   16  C15 UNL     1       0.776  -2.342  -0.191  1.00  0.00     0.067 A 
HETATM   17  C16 UNL     1       1.618  -3.372   0.046  1.00  0.00     0.035 A 
HETATM   18  C17 UNL     1       1.699  -3.998   1.232  1.00  0.00     0.158 A 
HETATM   19  C18 UNL     1       0.904  -3.600   2.237  1.00  0.00     0.181 A 
HETATM   20  O8  UNL     1       2.584  -5.009   1.447  1.00  0.00    -0.188 OA
HETATM   21  C19 UNL     1       0.012  -2.620   2.028  1.00  0.00     0.158 A 
HETATM   22  O7  UNL     1       0.980  -4.191   3.458  1.00  0.00    -0.186 OA
HETATM   23  C20 UNL     1      -0.036  -2.012   0.831  1.00  0.00     0.035 A 
HETATM   24  O6  UNL     1      -0.786  -2.222   3.053  1.00  0.00    -0.188 OA
ENDBRANCH  14  16
ENDBRANCH  13  14
ENDBRANCH   6  13
BRANCH  10  25
HETATM   25  C21 UNL     1      -2.096   3.524  -2.509  1.00  0.00     0.214 C 
HETATM   26  O11 UNL     1      -3.427   3.730  -2.938  1.00  0.00    -0.218 OA
ENDBRANCH  10  25
ENDBRANCH   4   5
ENDBRANCH   1   4
BRANCH   1  27
HETATM   27  C8  UNL     1       1.784   1.776   0.893  1.00  0.00     0.019 A 
HETATM   28  C9  UNL     1       0.840   2.262   1.719  1.00  0.00     0.001 A 
HETATM   29  C10 UNL     1       0.457   1.576   2.807  1.00  0.00     0.027 A 
HETATM   30  C11 UNL     1       1.017   0.397   3.123  1.00  0.00     0.131 A 
HETATM   31  C12 UNL     1       1.975  -0.074   2.307  1.00  0.00     0.027 A 
HETATM   32  O3  UNL     1       0.592  -0.330   4.190  1.00  0.00    -0.190 OA
HETATM   33  C13 UNL     1       2.353   0.601   1.212  1.00  0.00     0.001 A 
ENDBRANCH   1  27
TORSDOF 7
