REMARK  7 active torsions:
REMARK  status: ('A' for Active; 'I' for Inactive)
REMARK    1  A    between atoms: C3_4  and  O12_35 
REMARK    2  A    between atoms: C7_9  and  C10_13 
REMARK    3  A    between atoms: C12_15  and  O11_33 
REMARK    4  A    between atoms: C13_16  and  O5_21 
REMARK    5  A    between atoms: C14_17  and  O4_19 
REMARK    6  A    between atoms: O5_21  and  C17_22 
REMARK    7  A    between atoms: C18_24  and  C22_31 
ROOT
HETATM    1  C10 UNL     1      -1.032  -0.969   1.031  1.00  0.00     0.012 A 
HETATM    2  C11 UNL     1      -0.159  -0.766   2.025  1.00  0.00     0.025 A 
HETATM    3  C12 UNL     1       1.020  -0.159   1.821  1.00  0.00     0.118 A 
HETATM    4  C13 UNL     1       1.400   0.168   0.561  1.00  0.00     0.141 A 
HETATM    5  C14 UNL     1       0.524   0.009  -0.466  1.00  0.00     0.118 A 
HETATM    6  C15 UNL     1      -0.668  -0.561  -0.193  1.00  0.00     0.025 A 
ENDROOT
BRANCH   1   7
HETATM    7  C7  UNL     1      -2.324  -1.726   1.288  1.00  0.00     0.174 C 
HETATM    8  O2  UNL     1      -3.409  -1.219   0.555  1.00  0.00    -0.327 OA
HETATM    9  C5  UNL     1      -4.562  -1.965   0.592  1.00  0.00     0.095 A 
HETATM   10  C4  UNL     1      -4.605  -3.266   0.961  1.00  0.00     0.025 A 
HETATM   11  C6  UNL     1      -5.731  -1.355   0.325  1.00  0.00     0.051 A 
HETATM   12  C3  UNL     1      -5.768  -3.954   0.988  1.00  0.00     0.094 A 
HETATM   13  C9  UNL     1      -3.323  -3.982   1.333  1.00  0.00     0.066 C 
HETATM   14  C2  UNL     1      -6.903  -3.275   0.742  1.00  0.00     0.051 A 
HETATM   15  C1  UNL     1      -6.914  -1.982   0.388  1.00  0.00     0.135 A 
HETATM   16  O1  UNL     1      -8.075  -1.319   0.139  1.00  0.00    -0.190 OA
HETATM   17  C8  UNL     1      -2.106  -3.176   0.904  1.00  0.00     0.188 C 
HETATM   18  O3  UNL     1      -0.951  -3.665   1.544  1.00  0.00    -0.220 OA
BRANCH  12  19
HETATM   19  O12 UNL     1      -5.838  -5.258   1.413  1.00  0.00    -0.328 OA
HETATM   20  C24 UNL     1      -5.756  -6.220   0.382  1.00  0.00     0.181 C 
ENDBRANCH  12  19
ENDBRANCH   1   7
BRANCH   3  21
HETATM   21  O11 UNL     1       1.899  -0.036   2.873  1.00  0.00    -0.326 OA
HETATM   22  C23 UNL     1       1.741   1.160   3.602  1.00  0.00     0.181 C 
ENDBRANCH   3  21
BRANCH   5  23
HETATM   23  O4  UNL     1       0.881   0.373  -1.742  1.00  0.00    -0.326 OA
HETATM   24  C16 UNL     1      -0.022   0.205  -2.809  1.00  0.00     0.181 C 
ENDBRANCH   5  23
BRANCH   4  25
HETATM   25  O5  UNL     1       2.671   0.692   0.480  1.00  0.00    -0.300 OA
BRANCH  25  26
HETATM   26  C17 UNL     1       3.165   1.460  -0.590  1.00  0.00     0.274 C 
HETATM   27  O6  UNL     1       2.431   2.664  -0.569  1.00  0.00    -0.326 OA
HETATM   28  C18 UNL     1       2.886   3.622  -1.490  1.00  0.00     0.184 C 
HETATM   29  C19 UNL     1       4.340   3.976  -1.194  1.00  0.00     0.215 C 
HETATM   30  C20 UNL     1       5.230   2.751  -1.161  1.00  0.00     0.220 C 
HETATM   31  O9  UNL     1       4.873   4.865  -2.144  1.00  0.00    -0.218 OA
HETATM   32  C21 UNL     1       4.627   1.694  -0.268  1.00  0.00     0.241 C 
HETATM   33  O8  UNL     1       6.484   3.119  -0.638  1.00  0.00    -0.218 OA
HETATM   34  O7  UNL     1       4.738   2.124   1.068  1.00  0.00    -0.215 OA
BRANCH  28  35
HETATM   35  C22 UNL     1       2.585   3.200  -2.923  1.00  0.00     0.214 C 
HETATM   36  O10 UNL     1       2.513   4.333  -3.768  1.00  0.00    -0.218 OA
ENDBRANCH  28  35
ENDBRANCH  25  26
ENDBRANCH   4  25
TORSDOF 7
