REMARK  2 active torsions:
REMARK  status: ('A' for Active; 'I' for Inactive)
REMARK    1  A    between atoms: C5_5  and  C8_8 
REMARK    2  A    between atoms: C8_8  and  C9_9 
ROOT
HETATM    1  C1  UNL     1      -1.080   0.726  -0.164  1.00  0.00    -0.007 A 
HETATM    2  C2  UNL     1      -1.123  -0.496  -0.713  1.00  0.00     0.006 A 
HETATM    3  C3  UNL     1      -0.002  -1.193  -0.943  1.00  0.00     0.123 A 
HETATM    4  C4  UNL     1       1.179  -0.632  -0.602  1.00  0.00    -0.001 A 
HETATM    5  C5  UNL     1       1.228   0.600  -0.036  1.00  0.00    -0.025 A 
HETATM    6  C6  UNL     1       0.085   1.291   0.196  1.00  0.00    -0.026 A 
HETATM    7  C7  UNL     1       0.101   2.657   0.856  1.00  0.00     0.031 C 
HETATM    8  C10 UNL     1       2.417  -1.469  -0.882  1.00  0.00     0.033 C 
HETATM    9  O2  UNL     1      -0.075  -2.427  -1.512  1.00  0.00    -0.191 OA
HETATM   10  C11 UNL     1      -2.531  -0.960  -1.011  1.00  0.00     0.043 A 
HETATM   11  C12 UNL     1      -3.206   0.314  -0.571  1.00  0.00    -0.040 A 
HETATM   12  C13 UNL     1      -2.332   1.208  -0.085  1.00  0.00    -0.009 A 
HETATM   13  C14 UNL     1      -4.689   0.508  -0.680  1.00  0.00     0.027 C 
HETATM   14  C15 UNL     1      -2.969  -2.162  -0.169  1.00  0.00     0.009 C 
ENDROOT
BRANCH   5  15
HETATM   15  C8  UNL     1       2.569   1.212   0.353  1.00  0.00     0.061 C 
BRANCH  15  16
HETATM   16  C9  UNL     1       3.072   0.639   1.674  1.00  0.00     0.187 C 
HETATM   17  O1  UNL     1       4.292   1.259   2.027  1.00  0.00    -0.220 OA
ENDBRANCH  15  16
ENDBRANCH   5  15
TORSDOF 2
