REMARK  5 active torsions:
REMARK  status: ('A' for Active; 'I' for Inactive)
REMARK    1  A    between atoms: C1_1  and  O7_27 
REMARK    2  A    between atoms: C2_2  and  C16_22 
REMARK    3  A    between atoms: C7_8  and  O3_12 
REMARK    4  A    between atoms: O3_12  and  C10_13 
REMARK    5  A    between atoms: C16_22  and  C17_23 
ROOT
HETATM    1  C1  UNL     1      -0.903   0.768  -0.619  1.00  0.00     0.094 A 
HETATM    2  C2  UNL     1      -0.392   1.992  -0.362  1.00  0.00     0.030 A 
HETATM    3  C3  UNL     1       0.839   2.151   0.171  1.00  0.00     0.134 A 
HETATM    4  C4  UNL     1       1.589   1.062   0.451  1.00  0.00     0.087 A 
HETATM    5  C5  UNL     1       1.109  -0.175   0.211  1.00  0.00     0.109 A 
HETATM    6  C6  UNL     1      -0.125  -0.283  -0.309  1.00  0.00     0.049 A 
HETATM    7  O1  UNL     1       1.802  -1.322   0.478  1.00  0.00    -0.285 OA
HETATM    8  C7  UNL     1       3.040  -1.162   1.019  1.00  0.00     0.207 A 
HETATM    9  C8  UNL     1       3.538   0.061   1.260  1.00  0.00     0.093 A 
HETATM   10  C9  UNL     1       2.838   1.190   0.985  1.00  0.00     0.204 A 
HETATM   11  O2  UNL     1       3.375   2.246   1.239  1.00  0.00    -0.286 OA
HETATM   12  O6  UNL     1       1.280   3.411   0.449  1.00  0.00    -0.190 OA
ENDROOT
BRANCH   8  13
HETATM   13  O3  UNL     1       3.758  -2.286   1.335  1.00  0.00    -0.283 OA
BRANCH  13  14
HETATM   14  C10 UNL     1       3.303  -3.454   0.782  1.00  0.00     0.128 A 
HETATM   15  C11 UNL     1       3.762  -3.887  -0.409  1.00  0.00     0.156 A 
HETATM   16  C12 UNL     1       3.293  -5.040  -0.916  1.00  0.00     0.057 A 
HETATM   17  O5  UNL     1       4.691  -3.170  -1.100  1.00  0.00    -0.188 OA
HETATM   18  C13 UNL     1       2.375  -5.791  -0.288  1.00  0.00     0.133 A 
HETATM   19  C14 UNL     1       1.922  -5.347   0.894  1.00  0.00     0.030 A 
HETATM   20  O4  UNL     1       1.915  -6.954  -0.821  1.00  0.00    -0.190 OA
HETATM   21  C15 UNL     1       2.381  -4.202   1.417  1.00  0.00     0.029 A 
ENDBRANCH  13  14
ENDBRANCH   8  13
BRANCH   1  22
HETATM   22  O7  UNL     1      -2.176   0.666  -1.134  1.00  0.00    -0.328 OA
HETATM   23  C21 UNL     1      -2.791  -0.598  -1.211  1.00  0.00     0.181 C 
ENDBRANCH   1  22
BRANCH   2  24
HETATM   24  C16 UNL     1      -1.257   3.201  -0.691  1.00  0.00     0.056 C 
BRANCH  24  25
HETATM   25  C17 UNL     1      -2.272   3.418   0.402  1.00  0.00    -0.030 C 
HETATM   26  C18 UNL     1      -3.531   3.865   0.246  1.00  0.00    -0.048 C 
HETATM   27  C19 UNL     1      -4.466   4.000   1.425  1.00  0.00     0.026 C 
HETATM   28  C20 UNL     1      -4.139   4.265  -1.077  1.00  0.00     0.026 C 
ENDBRANCH  24  25
ENDBRANCH   2  24
TORSDOF 5
