REMARK  4 active torsions:
REMARK  status: ('A' for Active; 'I' for Inactive)
REMARK    1  A    between atoms: C1_1  and  O6_26 
REMARK    2  A    between atoms: C2_2  and  C16_21 
REMARK    3  A    between atoms: C8_9  and  C10_12 
REMARK    4  A    between atoms: C16_21  and  C17_22 
ROOT
HETATM    1  C1  UNL     1      -2.151   0.557   1.341  1.00  0.00     0.094 A 
HETATM    2  C2  UNL     1      -1.688  -0.528   0.687  1.00  0.00     0.030 A 
HETATM    3  C3  UNL     1      -0.518  -0.495   0.010  1.00  0.00     0.134 A 
HETATM    4  C4  UNL     1       0.189   0.658  -0.044  1.00  0.00     0.083 A 
HETATM    5  C5  UNL     1      -0.273   1.777   0.555  1.00  0.00     0.101 A 
HETATM    6  C6  UNL     1      -1.448   1.692   1.201  1.00  0.00     0.048 A 
HETATM    7  O1  UNL     1       0.339   3.003   0.490  1.00  0.00    -0.330 OA
HETATM    8  C7  UNL     1       1.129   3.207  -0.645  1.00  0.00     0.161 C 
HETATM    9  C8  UNL     1       2.118   2.058  -0.756  1.00  0.00     0.116 C 
HETATM   10  C9  UNL     1       1.377   0.729  -0.708  1.00  0.00     0.183 C 
HETATM   11  O2  UNL     1       1.893  -0.188  -1.304  1.00  0.00    -0.291 OA
HETATM   12  O5  UNL     1      -0.091  -1.656  -0.569  1.00  0.00    -0.190 OA
ENDROOT
BRANCH   9  13
HETATM   13  C10 UNL     1       3.006   2.235  -1.981  1.00  0.00     0.013 A 
HETATM   14  C11 UNL     1       4.263   2.686  -1.819  1.00  0.00     0.000 A 
HETATM   15  C12 UNL     1       5.083   2.868  -2.864  1.00  0.00     0.027 A 
HETATM   16  C13 UNL     1       4.668   2.608  -4.113  1.00  0.00     0.133 A 
HETATM   17  C14 UNL     1       3.410   2.166  -4.263  1.00  0.00     0.054 A 
HETATM   18  O4  UNL     1       5.486   2.776  -5.187  1.00  0.00    -0.190 OA
HETATM   19  C15 UNL     1       2.565   1.984  -3.233  1.00  0.00     0.130 A 
HETATM   20  O3  UNL     1       1.311   1.508  -3.472  1.00  0.00    -0.190 OA
ENDBRANCH   9  13
BRANCH   2  21
HETATM   21  C16 UNL     1      -2.472  -1.834   0.735  1.00  0.00     0.056 C 
BRANCH  21  22
HETATM   22  C17 UNL     1      -1.926  -2.734   1.816  1.00  0.00    -0.030 C 
HETATM   23  C18 UNL     1      -2.565  -3.771   2.386  1.00  0.00    -0.048 C 
HETATM   24  C19 UNL     1      -1.903  -4.601   3.462  1.00  0.00     0.026 C 
HETATM   25  C20 UNL     1      -3.962  -4.212   2.023  1.00  0.00     0.026 C 
ENDBRANCH  21  22
ENDBRANCH   2  21
BRANCH   1  26
HETATM   26  O6  UNL     1      -3.360   0.580   1.992  1.00  0.00    -0.328 OA
HETATM   27  C21 UNL     1      -3.276   0.260   3.362  1.00  0.00     0.181 C 
ENDBRANCH   1  26
TORSDOF 4
