REMARK  16 active torsions:
REMARK  status: ('A' for Active; 'I' for Inactive)
REMARK    1  A    between atoms: C2_2  and  O17_56 
REMARK    2  A    between atoms: C15_15  and  C18_19 
REMARK    3  A    between atoms: C18_19  and  O2_21 
REMARK    4  A    between atoms: O2_21  and  C20_22 
REMARK    5  A    between atoms: C21_23  and  O6_31 
REMARK    6  A    between atoms: O6_31  and  C26_32 
REMARK    7  A    between atoms: C27_34  and  C31_41 
REMARK    8  A    between atoms: C31_41  and  O11_42 
REMARK    9  A    between atoms: O11_42  and  C32_43 
REMARK   10  A    between atoms: C33_45  and  C37_52 
REMARK   11  A    between atoms: O17_56  and  C40_57 
REMARK   12  A    between atoms: C42_60  and  O20_65 
REMARK   13  A    between atoms: C43_61  and  O19_63 
REMARK   14  A    between atoms: O20_65  and  C46_66 
REMARK   15  A    between atoms: C50_71  and  O22_72 
REMARK   16  A    between atoms: O22_72  and  C51_73 
ROOT
HETATM    1  C1  UNL     1      -3.997  -1.596  -1.254  1.00  0.00     0.030 C 
HETATM    2  C2  UNL     1      -4.839  -2.397  -0.261  1.00  0.00     0.122 C 
HETATM    3  C3  UNL     1      -3.887  -3.105   0.712  1.00  0.00     0.051 C 
HETATM    4  C4  UNL     1      -2.509  -2.469   0.786  1.00  0.00    -0.047 C 
HETATM    5  C5  UNL     1      -2.429  -0.951   0.716  1.00  0.00     0.015 C 
HETATM    6  C6  UNL     1      -3.231  -0.475  -0.528  1.00  0.00     0.006 C 
HETATM    7  C7  UNL     1      -0.953  -0.505   0.552  1.00  0.00     0.004 C 
HETATM    8  C8  UNL     1       0.009  -1.237   1.499  1.00  0.00     0.005 C 
HETATM    9  C9  UNL     1      -0.007  -2.719   1.088  1.00  0.00     0.025 C 
HETATM   10  C10 UNL     1      -1.416  -3.237   0.938  1.00  0.00    -0.035 C 
HETATM   11  C11 UNL     1       1.371  -0.508   1.679  1.00  0.00     0.003 C 
HETATM   12  C12 UNL     1       1.807   0.505   0.576  1.00  0.00     0.005 C 
HETATM   13  C13 UNL     1       0.623   1.324   0.010  1.00  0.00     0.000 C 
HETATM   14  C14 UNL     1      -0.721   1.006   0.670  1.00  0.00     0.000 C 
HETATM   15  C15 UNL     1       2.489  -0.435  -0.450  1.00  0.00     0.058 C 
HETATM   16  C16 UNL     1       3.227  -1.450   0.438  1.00  0.00     0.154 C 
HETATM   17  C17 UNL     1       2.575  -1.454   1.816  1.00  0.00     0.033 C 
HETATM   18  O1  UNL     1       3.207  -2.722  -0.164  1.00  0.00    -0.223 OA
HETATM   19  C38 UNL     1       2.840   1.505   1.153  1.00  0.00     0.000 C 
HETATM   20  C39 UNL     1      -3.007  -0.358   2.019  1.00  0.00     0.004 C 
ENDROOT
BRANCH  15  21
HETATM   21  C18 UNL     1       3.426   0.131  -1.538  1.00  0.00     0.120 C 
HETATM   22  C19 UNL     1       2.761   1.159  -2.455  1.00  0.00     0.032 C 
BRANCH  21  23
HETATM   23  O2  UNL     1       3.902  -0.988  -2.248  1.00  0.00    -0.332 OA
BRANCH  23  24
HETATM   24  C20 UNL     1       4.835  -0.737  -3.285  1.00  0.00     0.266 C 
HETATM   25  C21 UNL     1       5.809  -1.905  -3.448  1.00  0.00     0.207 C 
HETATM   26  C22 UNL     1       6.522  -1.800  -4.795  1.00  0.00     0.217 C 
HETATM   27  C23 UNL     1       5.530  -1.595  -5.922  1.00  0.00     0.212 C 
HETATM   28  O5  UNL     1       7.399  -0.700  -4.718  1.00  0.00    -0.218 OA
HETATM   29  C24 UNL     1       4.623  -0.417  -5.612  1.00  0.00     0.151 C 
HETATM   30  O4  UNL     1       6.213  -1.389  -7.135  1.00  0.00    -0.218 OA
HETATM   31  O3  UNL     1       3.968  -0.663  -4.403  1.00  0.00    -0.329 OA
HETATM   32  C25 UNL     1       3.556  -0.221  -6.691  1.00  0.00     0.035 C 
BRANCH  25  33
HETATM   33  O6  UNL     1       6.849  -1.955  -2.499  1.00  0.00    -0.324 OA
BRANCH  33  34
HETATM   34  C26 UNL     1       6.454  -2.070  -1.155  1.00  0.00     0.270 C 
HETATM   35  O7  UNL     1       6.394  -0.775  -0.600  1.00  0.00    -0.326 OA
HETATM   36  C27 UNL     1       7.603  -0.184  -0.210  1.00  0.00     0.180 C 
HETATM   37  C28 UNL     1       8.419  -1.096   0.692  1.00  0.00     0.215 C 
HETATM   38  C29 UNL     1       8.616  -2.476   0.098  1.00  0.00     0.220 C 
HETATM   39  O10 UNL     1       7.763  -1.218   1.937  1.00  0.00    -0.218 OA
HETATM   40  C30 UNL     1       7.278  -3.038  -0.338  1.00  0.00     0.241 C 
HETATM   41  O9  UNL     1       9.482  -2.412  -1.008  1.00  0.00    -0.218 OA
HETATM   42  O8  UNL     1       6.531  -3.358   0.818  1.00  0.00    -0.215 OA
BRANCH  36  43
HETATM   43  C31 UNL     1       8.393   0.414  -1.371  1.00  0.00     0.177 C 
BRANCH  43  44
HETATM   44  O11 UNL     1       7.625   1.436  -1.958  1.00  0.00    -0.326 OA
BRANCH  44  45
HETATM   45  C32 UNL     1       8.249   2.076  -3.046  1.00  0.00     0.270 C 
HETATM   46  O12 UNL     1       9.357   2.830  -2.607  1.00  0.00    -0.326 OA
HETATM   47  C33 UNL     1       9.085   4.016  -1.912  1.00  0.00     0.184 C 
HETATM   48  C34 UNL     1       8.122   4.914  -2.674  1.00  0.00     0.215 C 
HETATM   49  C35 UNL     1       6.869   4.195  -3.138  1.00  0.00     0.220 C 
HETATM   50  O15 UNL     1       8.783   5.418  -3.816  1.00  0.00    -0.218 OA
HETATM   51  C36 UNL     1       7.248   2.899  -3.830  1.00  0.00     0.241 C 
HETATM   52  O14 UNL     1       6.016   3.931  -2.050  1.00  0.00    -0.218 OA
HETATM   53  O13 UNL     1       7.815   3.200  -5.085  1.00  0.00    -0.215 OA
BRANCH  47  54
HETATM   54  C37 UNL     1       8.737   3.775  -0.448  1.00  0.00     0.214 C 
HETATM   55  O16 UNL     1       8.898   4.972   0.288  1.00  0.00    -0.218 OA
ENDBRANCH  47  54
ENDBRANCH  44  45
ENDBRANCH  43  44
ENDBRANCH  36  43
ENDBRANCH  33  34
ENDBRANCH  25  33
ENDBRANCH  23  24
ENDBRANCH  21  23
ENDBRANCH  15  21
BRANCH   2  56
HETATM   56  O17 UNL     1      -5.673  -1.480   0.387  1.00  0.00    -0.333 OA
BRANCH  56  57
HETATM   57  C40 UNL     1      -6.750  -2.010   1.127  1.00  0.00     0.238 C 
HETATM   58  O18 UNL     1      -7.933  -1.538   0.514  1.00  0.00    -0.331 OA
HETATM   59  C41 UNL     1      -8.202  -0.162   0.648  1.00  0.00     0.147 C 
HETATM   60  C42 UNL     1      -8.134   0.340   2.098  1.00  0.00     0.172 C 
HETATM   61  C54 UNL     1      -7.417   0.702  -0.346  1.00  0.00     0.035 C 
HETATM   62  C43 UNL     1      -6.789  -0.075   2.696  1.00  0.00     0.150 C 
HETATM   63  C44 UNL     1      -6.670  -1.592   2.584  1.00  0.00     0.094 C 
BRANCH  60  64
HETATM   64  O20 UNL     1      -9.243  -0.209   2.762  1.00  0.00    -0.327 OA
BRANCH  64  65
HETATM   65  C46 UNL     1      -9.597   0.381   3.993  1.00  0.00     0.267 C 
HETATM   66  O21 UNL     1      -9.558  -0.641   4.970  1.00  0.00    -0.329 OA
HETATM   67  C47 UNL     1     -10.587  -1.597   4.912  1.00  0.00     0.151 C 
HETATM   68  C48 UNL     1     -11.976  -0.988   4.785  1.00  0.00     0.212 C 
HETATM   69  C53 UNL     1     -10.333  -2.683   3.862  1.00  0.00     0.035 C 
HETATM   70  C49 UNL     1     -12.042   0.075   3.709  1.00  0.00     0.217 C 
HETATM   71  O25 UNL     1     -12.353  -0.389   6.003  1.00  0.00    -0.218 OA
HETATM   72  C50 UNL     1     -10.936   1.088   3.942  1.00  0.00     0.213 C 
HETATM   73  O24 UNL     1     -13.287   0.724   3.802  1.00  0.00    -0.218 OA
BRANCH  72  74
HETATM   74  O22 UNL     1     -10.970   2.033   2.911  1.00  0.00    -0.296 OA
BRANCH  74  75
HETATM   75  C51 UNL     1     -10.683   3.357   3.079  1.00  0.00     0.273 C 
HETATM   76  O23 UNL     1     -10.733   4.139   2.154  1.00  0.00    -0.264 OA
HETATM   77  C52 UNL     1     -10.285   3.816   4.471  1.00  0.00     0.106 C 
ENDBRANCH  74  75
ENDBRANCH  72  74
ENDBRANCH  64  65
ENDBRANCH  60  64
BRANCH  62  78
HETATM   78  O19 UNL     1      -6.591   0.305   4.028  1.00  0.00    -0.351 OA
HETATM   79  C45 UNL     1      -6.123   1.631   4.167  1.00  0.00     0.174 C 
ENDBRANCH  62  78
ENDBRANCH  56  57
ENDBRANCH   2  56
TORSDOF 16
