REMARK  4 active torsions:
REMARK  status: ('A' for Active; 'I' for Inactive)
REMARK    1  A    between atoms: C2_2  and  O5_18 
REMARK    2  A    between atoms: C3_3  and  O4_16 
REMARK    3  A    between atoms: C7_7  and  O3_14 
REMARK    4  A    between atoms: C8_8  and  C10_12 
ROOT
HETATM    1  C1  UNL     1       2.317  -0.281  -0.238  1.00  0.00     0.026 A 
HETATM    2  C2  UNL     1       2.048   0.929   0.290  1.00  0.00     0.118 A 
HETATM    3  C3  UNL     1       0.739   1.260   0.412  1.00  0.00     0.134 A 
HETATM    4  C4  UNL     1      -0.185   0.339   0.066  1.00  0.00     0.111 A 
HETATM    5  C5  UNL     1       0.071  -0.865  -0.467  1.00  0.00     0.042 A 
HETATM    6  C6  UNL     1       1.374  -1.151  -0.624  1.00  0.00     0.006 A 
HETATM    7  C7  UNL     1      -0.923  -1.721  -0.815  1.00  0.00     0.103 A 
HETATM    8  C8  UNL     1      -2.219  -1.324  -0.698  1.00  0.00     0.122 A 
HETATM    9  C9  UNL     1      -2.524  -0.114  -0.152  1.00  0.00     0.284 A 
HETATM   10  N1  UNL     1      -1.479   0.655   0.212  1.00  0.00    -0.206 NA
HETATM   11  O1  UNL     1      -3.644   0.306   0.006  1.00  0.00    -0.265 OA
ENDROOT
BRANCH   2  12
HETATM   12  O5  UNL     1       3.136   1.684   0.674  1.00  0.00    -0.326 OA
HETATM   13  C13 UNL     1       3.030   2.631   1.709  1.00  0.00     0.181 C 
ENDBRANCH   2  12
BRANCH   3  14
HETATM   14  O4  UNL     1       0.318   2.433   0.990  1.00  0.00    -0.325 OA
HETATM   15  C12 UNL     1       0.056   3.465   0.064  1.00  0.00     0.182 C 
ENDBRANCH   3  14
BRANCH   7  16
HETATM   16  O3  UNL     1      -0.594  -2.917  -1.414  1.00  0.00    -0.328 OA
HETATM   17  C11 UNL     1      -0.466  -4.000  -0.518  1.00  0.00     0.181 C 
ENDBRANCH   7  16
BRANCH   8  18
HETATM   18  C10 UNL     1      -3.259  -2.110  -1.103  1.00  0.00     0.241 C 
HETATM   19  O2  UNL     1      -3.193  -3.212  -1.593  1.00  0.00    -0.283 OA
ENDBRANCH   8  18
TORSDOF 4
