REMARK  6 active torsions:
REMARK  status: ('A' for Active; 'I' for Inactive)
REMARK    1  A    between atoms: C7_8  and  C10_11 
REMARK    2  A    between atoms: C10_11  and  C11_12 
REMARK    3  A    between atoms: C11_12  and  C12_13 
REMARK    4  A    between atoms: C12_13  and  C13_15 
REMARK    5  A    between atoms: C15_17  and  C19_23 
REMARK    6  A    between atoms: C19_23  and  C20_24 
ROOT
HETATM    1  C11 UNL     1      -0.982  -1.482  -1.157  1.00  0.00     0.138 C 
ENDROOT
BRANCH   1   2
HETATM    2  C10 UNL     1      -1.099   0.041  -1.165  1.00  0.00     0.181 C 
HETATM    3  O5  UNL     1      -0.061   0.657  -1.256  1.00  0.00    -0.291 OA
BRANCH   2   4
HETATM    4  C7  UNL     1      -2.290   0.668  -0.952  1.00  0.00     0.035 A 
HETATM    5  C6  UNL     1      -2.333   2.006  -0.806  1.00  0.00     0.005 A 
HETATM    6  C3  UNL     1      -3.484   2.658  -0.554  1.00  0.00     0.022 A 
HETATM    7  C2  UNL     1      -4.645   1.983  -0.436  1.00  0.00     0.094 A 
HETATM    8  C4  UNL     1      -3.477   3.989  -0.372  1.00  0.00    -0.000 C 
HETATM    9  O1  UNL     1      -5.854   2.565  -0.160  1.00  0.00    -0.332 OA
HETATM   10  C9  UNL     1      -4.595   0.651  -0.619  1.00  0.00     0.024 A 
HETATM   11  C1  UNL     1      -5.961   3.960  -0.259  1.00  0.00     0.117 C 
HETATM   12  C5  UNL     1      -4.623   4.649  -0.174  1.00  0.00     0.001 C 
HETATM   13  C24 UNL     1      -6.868   4.436   0.882  1.00  0.00     0.035 C 
HETATM   14  C25 UNL     1      -6.593   4.302  -1.613  1.00  0.00     0.035 C 
HETATM   15  C8  UNL     1      -3.451  -0.004  -0.865  1.00  0.00     0.005 A 
ENDBRANCH   2   4
ENDBRANCH   1   2
BRANCH   1  16
HETATM   16  C12 UNL     1       0.443  -2.029  -1.000  1.00  0.00     0.183 C 
HETATM   17  O2  UNL     1       0.794  -2.753  -1.909  1.00  0.00    -0.291 OA
BRANCH  16  18
HETATM   18  C13 UNL     1       1.270  -1.770   0.059  1.00  0.00     0.060 A 
HETATM   19  C14 UNL     1       2.488  -2.352   0.064  1.00  0.00     0.003 A 
HETATM   20  C15 UNL     1       3.391  -2.180   1.046  1.00  0.00     0.008 A 
HETATM   21  C16 UNL     1       3.072  -1.389   2.086  1.00  0.00     0.129 A 
HETATM   22  C17 UNL     1       1.858  -0.820   2.086  1.00  0.00     0.054 A 
HETATM   23  O4  UNL     1       3.922  -1.168   3.126  1.00  0.00    -0.190 OA
HETATM   24  C18 UNL     1       0.953  -0.973   1.104  1.00  0.00     0.136 A 
HETATM   25  O3  UNL     1      -0.246  -0.350   1.262  1.00  0.00    -0.190 OA
BRANCH  20  26
HETATM   26  C19 UNL     1       4.725  -2.899   0.978  1.00  0.00     0.054 C 
BRANCH  26  27
HETATM   27  C20 UNL     1       5.554  -2.515  -0.222  1.00  0.00    -0.030 C 
HETATM   28  C21 UNL     1       6.793  -2.971  -0.480  1.00  0.00    -0.048 C 
HETATM   29  C22 UNL     1       7.542  -2.559  -1.726  1.00  0.00     0.026 C 
HETATM   30  C23 UNL     1       7.546  -3.921   0.421  1.00  0.00     0.026 C 
ENDBRANCH  26  27
ENDBRANCH  20  26
ENDBRANCH  16  18
ENDBRANCH   1  16
TORSDOF 6
