REMARK  2 active torsions:
REMARK  status: ('A' for Active; 'I' for Inactive)
REMARK    1  A    between atoms: C21_26  and  C22_28 
REMARK    2  A    between atoms: C23_29  and  C24_30 
ROOT
HETATM    1  C1  UNL     1      -0.095   3.569  -0.470  1.00  0.00     0.026 A 
HETATM    2  C2  UNL     1      -0.315   2.314  -0.883  1.00  0.00     0.118 A 
HETATM    3  C3  UNL     1       0.715   1.562  -1.340  1.00  0.00     0.132 A 
HETATM    4  C4  UNL     1       1.990   2.067  -1.363  1.00  0.00     0.088 A 
HETATM    5  C5  UNL     1       2.161   3.334  -0.931  1.00  0.00     0.057 A 
HETATM    6  C6  UNL     1       1.131   4.086  -0.509  1.00  0.00     0.007 A 
HETATM    7  C7  UNL     1       3.388   3.913  -0.927  1.00  0.00     0.200 A 
HETATM    8  C8  UNL     1       4.476   3.175  -1.278  1.00  0.00     0.080 A 
HETATM    9  C9  UNL     1       4.304   1.883  -1.657  1.00  0.00     0.067 A 
HETATM   10  N1  UNL     1       3.079   1.481  -1.729  1.00  0.00    -0.324 N 
HETATM   11  C10 UNL     1       2.856   0.221  -2.511  1.00  0.00     0.131 C 
HETATM   12  C11 UNL     1       5.442   1.153  -1.866  1.00  0.00     0.038 C 
HETATM   13  C12 UNL     1       6.669   1.728  -1.887  1.00  0.00     0.098 C 
HETATM   14  C13 UNL     1       6.746   3.032  -1.602  1.00  0.00     0.052 C 
HETATM   15  C14 UNL     1       5.688   3.777  -1.268  1.00  0.00     0.137 C 
HETATM   16  O1  UNL     1       5.951   5.070  -0.913  1.00  0.00    -0.190 OA
HETATM   17  O2  UNL     1       7.868   1.093  -2.106  1.00  0.00    -0.332 OA
HETATM   18  C15 UNL     1       7.832  -0.166  -2.703  1.00  0.00     0.117 C 
HETATM   19  C16 UNL     1       6.612  -0.885  -2.216  1.00  0.00     0.001 C 
HETATM   20  C17 UNL     1       5.511  -0.196  -1.892  1.00  0.00     0.001 C 
HETATM   21  C18 UNL     1       9.105  -0.916  -2.301  1.00  0.00     0.035 C 
HETATM   22  C19 UNL     1       7.763  -0.002  -4.224  1.00  0.00     0.035 C 
HETATM   23  O3  UNL     1       3.481   5.070  -0.585  1.00  0.00    -0.286 OA
HETATM   24  O4  UNL     1       0.411   0.275  -1.723  1.00  0.00    -0.325 OA
HETATM   25  C20 UNL     1      -0.942  -0.079  -1.827  1.00  0.00     0.181 C 
HETATM   26  C21 UNL     1      -1.729   0.454  -0.633  1.00  0.00     0.145 C 
HETATM   27  O5  UNL     1      -1.590   1.841  -0.726  1.00  0.00    -0.327 OA
HETATM   28  C38 UNL     1      -1.110  -0.124   0.652  1.00  0.00     0.037 C 
ENDROOT
BRANCH  26  29
HETATM   29  C22 UNL     1      -3.203   0.073  -0.805  1.00  0.00     0.003 C 
HETATM   30  C23 UNL     1      -4.151  -0.308   0.076  1.00  0.00     0.001 C 
BRANCH  30  31
HETATM   31  C24 UNL     1      -4.247  -0.291   1.424  1.00  0.00     0.041 A 
HETATM   32  C25 UNL     1      -3.858   0.877   1.980  1.00  0.00     0.134 A 
HETATM   33  C26 UNL     1      -4.059   1.080   3.284  1.00  0.00     0.055 A 
HETATM   34  O9  UNL     1      -3.372   1.931   1.274  1.00  0.00    -0.190 OA
HETATM   35  C27 UNL     1      -4.664   0.185   4.068  1.00  0.00     0.138 A 
HETATM   36  C28 UNL     1      -5.083  -0.966   3.491  1.00  0.00     0.080 A 
HETATM   37  O8  UNL     1      -4.785   0.529   5.384  1.00  0.00    -0.190 OA
HETATM   38  C29 UNL     1      -4.861  -1.253   2.181  1.00  0.00     0.067 A 
HETATM   39  C32 UNL     1      -5.738  -1.866   4.276  1.00  0.00     0.200 A 
HETATM   40  N2  UNL     1      -5.256  -2.421   1.796  1.00  0.00    -0.324 N 
HETATM   41  C30 UNL     1      -5.934  -3.309   2.437  1.00  0.00     0.089 A 
HETATM   42  C37 UNL     1      -4.707  -2.912   0.488  1.00  0.00     0.131 C 
HETATM   43  C31 UNL     1      -6.179  -3.030   3.735  1.00  0.00     0.057 A 
HETATM   44  C36 UNL     1      -6.434  -4.488   1.970  1.00  0.00     0.147 A 
HETATM   45  C33 UNL     1      -6.835  -3.883   4.546  1.00  0.00     0.005 A 
HETATM   46  C34 UNL     1      -7.294  -5.048   4.083  1.00  0.00     0.002 A 
HETATM   47  C35 UNL     1      -7.103  -5.319   2.791  1.00  0.00     0.029 A 
HETATM   48  O7  UNL     1      -6.431  -4.882   0.665  1.00  0.00    -0.189 OA
HETATM   49  O6  UNL     1      -5.966  -1.652   5.445  1.00  0.00    -0.286 OA
ENDBRANCH  30  31
ENDBRANCH  26  29
TORSDOF 2
