REMARK  11 active torsions:
REMARK  status: ('A' for Active; 'I' for Inactive)
REMARK    1  A    between atoms: C4_4  and  C7_7 
REMARK    2  A    between atoms: C8_8  and  C9_9 
REMARK    3  A    between atoms: C9_9  and  O2_11 
REMARK    4  A    between atoms: O2_11  and  C10_12 
REMARK    5  A    between atoms: C10_12  and  C11_13 
REMARK    6  A    between atoms: C13_15  and  O4_18 
REMARK    7  A    between atoms: O4_18  and  C15_19 
REMARK    8  A    between atoms: C16_20  and  O9_29 
REMARK    9  A    between atoms: C17_22  and  C20_27 
REMARK   10  A    between atoms: O9_29  and  C21_30 
REMARK   11  A    between atoms: C25_34  and  O10_36 
ROOT
HETATM    1  O4  UNL     1       1.867   0.917  -1.019  1.00  0.00    -0.324 OA
ENDROOT
BRANCH   1   2
HETATM    2  C13 UNL     1       1.347   0.997  -2.328  1.00  0.00     0.270 C 
HETATM    3  C12 UNL     1       1.220  -0.407  -2.875  1.00  0.00     0.241 C 
HETATM    4  C11 UNL     1      -0.248  -0.732  -2.695  1.00  0.00     0.214 C 
HETATM    5  O12 UNL     1       1.510  -0.396  -4.254  1.00  0.00    -0.215 OA
HETATM    6  C14 UNL     1      -0.849   0.651  -2.855  1.00  0.00     0.181 C 
HETATM    7  O13 UNL     1      -0.638  -1.590  -3.732  1.00  0.00    -0.218 OA
HETATM    8  O3  UNL     1       0.043   1.530  -2.215  1.00  0.00    -0.326 OA
BRANCH   4   9
HETATM    9  C10 UNL     1      -0.589  -1.385  -1.362  1.00  0.00     0.188 C 
BRANCH   9  10
HETATM   10  O2  UNL     1      -1.853  -1.977  -1.502  1.00  0.00    -0.296 OA
BRANCH  10  11
HETATM   11  C9  UNL     1      -2.281  -2.825  -0.518  1.00  0.00     0.296 C 
HETATM   12  O1  UNL     1      -1.793  -2.757   0.591  1.00  0.00    -0.259 OA
BRANCH  11  13
HETATM   13  C8  UNL     1      -3.148  -3.847  -0.769  1.00  0.00     0.068 C 
HETATM   14  C7  UNL     1      -3.677  -4.078  -1.985  1.00  0.00     0.005 C 
BRANCH  14  15
HETATM   15  C4  UNL     1      -4.506  -5.081  -2.347  1.00  0.00     0.000 A 
HETATM   16  C3  UNL     1      -4.899  -5.168  -3.634  1.00  0.00     0.002 A 
HETATM   17  C2  UNL     1      -5.702  -6.154  -4.063  1.00  0.00     0.027 A 
HETATM   18  C1  UNL     1      -6.155  -7.100  -3.226  1.00  0.00     0.131 A 
HETATM   19  C6  UNL     1      -5.774  -7.013  -1.941  1.00  0.00     0.027 A 
HETATM   20  O14 UNL     1      -6.965  -8.105  -3.654  1.00  0.00    -0.190 OA
HETATM   21  C5  UNL     1      -4.969  -6.029  -1.510  1.00  0.00     0.002 A 
ENDBRANCH  14  15
ENDBRANCH  11  13
ENDBRANCH  10  11
ENDBRANCH   9  10
ENDBRANCH   4   9
ENDBRANCH   1   2
BRANCH   1  22
HETATM   22  C15 UNL     1       2.393   2.124  -0.539  1.00  0.00     0.207 C 
HETATM   23  C16 UNL     1       2.099   2.235   0.949  1.00  0.00     0.271 C 
HETATM   24  O5  UNL     1       2.667   3.418   1.471  1.00  0.00    -0.326 OA
HETATM   25  C17 UNL     1       4.067   3.413   1.411  1.00  0.00     0.184 C 
HETATM   26  C18 UNL     1       4.496   3.349  -0.048  1.00  0.00     0.215 C 
HETATM   27  C19 UNL     1       3.908   2.116  -0.705  1.00  0.00     0.217 C 
HETATM   28  O7  UNL     1       5.896   3.269  -0.160  1.00  0.00    -0.218 OA
HETATM   29  O6  UNL     1       4.278   2.117  -2.060  1.00  0.00    -0.218 OA
BRANCH  23  30
HETATM   30  O9  UNL     1       0.709   2.381   1.143  1.00  0.00    -0.304 OA
BRANCH  30  31
HETATM   31  C21 UNL     1       0.196   2.474   2.415  1.00  0.00     0.099 A 
HETATM   32  C22 UNL     1      -1.091   2.838   2.557  1.00  0.00     0.026 A 
HETATM   33  C23 UNL     1      -1.656   2.969   3.764  1.00  0.00     0.031 A 
HETATM   34  C24 UNL     1      -0.953   2.750   4.885  1.00  0.00     0.153 A 
HETATM   35  C25 UNL     1       0.343   2.386   4.795  1.00  0.00     0.121 A 
HETATM   36  O11 UNL     1      -1.534   2.892   6.107  1.00  0.00    -0.188 OA
HETATM   37  C26 UNL     1       0.875   2.267   3.562  1.00  0.00     0.051 A 
BRANCH  35  38
HETATM   38  O10 UNL     1       1.030   2.189   5.971  1.00  0.00    -0.326 OA
HETATM   39  C27 UNL     1       2.421   1.973   5.931  1.00  0.00     0.181 C 
ENDBRANCH  35  38
ENDBRANCH  30  31
ENDBRANCH  23  30
BRANCH  25  40
HETATM   40  C20 UNL     1       4.583   4.665   2.104  1.00  0.00     0.214 C 
HETATM   41  O8  UNL     1       4.252   4.617   3.478  1.00  0.00    -0.218 OA
ENDBRANCH  25  40
ENDBRANCH   1  22
TORSDOF 11
