REMARK  4 active torsions:
REMARK  status: ('A' for Active; 'I' for Inactive)
REMARK    1  A    between atoms: C4_4  and  C7_8 
REMARK    2  A    between atoms: C8_9  and  C23_28 
REMARK    3  A    between atoms: C12_14  and  C15_18 
REMARK    4  A    between atoms: C16_19  and  C17_20 
ROOT
HETATM    1  C7  UNL     1      -2.617  -0.394  -0.144  1.00  0.00     0.154 A 
HETATM    2  C8  UNL     1      -1.806  -1.704   0.010  1.00  0.00     0.081 A 
HETATM    3  C9  UNL     1      -0.454  -1.069   0.165  1.00  0.00     0.032 A 
HETATM    4  C10 UNL     1      -0.531   0.262   0.086  1.00  0.00     0.093 A 
HETATM    5  O2  UNL     1      -1.676   0.681  -0.073  1.00  0.00    -0.328 OA
HETATM    6  C11 UNL     1       0.571   1.022   0.157  1.00  0.00     0.024 A 
HETATM    7  C12 UNL     1       1.782   0.445   0.306  1.00  0.00     0.004 A 
HETATM    8  C13 UNL     1       1.815  -0.904   0.397  1.00  0.00     0.027 A 
HETATM    9  C14 UNL     1       0.723  -1.687   0.333  1.00  0.00     0.129 A 
HETATM   10  O3  UNL     1       0.820  -3.041   0.409  1.00  0.00    -0.190 OA
ENDROOT
BRANCH   7  11
HETATM   11  C15 UNL     1       2.953   1.121   0.346  1.00  0.00     0.000 C 
HETATM   12  C16 UNL     1       3.149   2.451   0.254  1.00  0.00     0.002 C 
BRANCH  12  13
HETATM   13  C17 UNL     1       4.324   3.124   0.249  1.00  0.00     0.025 A 
HETATM   14  C18 UNL     1       4.315   4.474   0.146  1.00  0.00     0.133 A 
HETATM   15  C19 UNL     1       5.481   5.145   0.126  1.00  0.00     0.055 A 
HETATM   16  O5  UNL     1       3.162   5.198   0.057  1.00  0.00    -0.190 OA
HETATM   17  C20 UNL     1       6.677   4.545   0.203  1.00  0.00     0.133 A 
HETATM   18  C21 UNL     1       6.676   3.208   0.308  1.00  0.00     0.028 A 
HETATM   19  O4  UNL     1       7.839   5.250   0.175  1.00  0.00    -0.190 OA
HETATM   20  C22 UNL     1       5.526   2.519   0.331  1.00  0.00     0.004 A 
ENDBRANCH  12  13
ENDBRANCH   7  11
BRANCH   2  21
HETATM   21  C23 UNL     1      -2.140  -2.603   1.183  1.00  0.00    -0.011 A 
HETATM   22  C24 UNL     1      -2.104  -3.939   1.031  1.00  0.00     0.024 A 
HETATM   23  C25 UNL     1      -2.370  -4.785   2.040  1.00  0.00     0.133 A 
HETATM   24  C26 UNL     1      -2.693  -4.256   3.230  1.00  0.00     0.055 A 
HETATM   25  O7  UNL     1      -2.317  -6.133   1.868  1.00  0.00    -0.190 OA
HETATM   26  C27 UNL     1      -2.740  -2.929   3.434  1.00  0.00     0.133 A 
HETATM   27  C28 UNL     1      -2.445  -2.122   2.401  1.00  0.00     0.024 A 
HETATM   28  O6  UNL     1      -3.067  -2.414   4.649  1.00  0.00    -0.190 OA
ENDBRANCH   2  21
BRANCH   1  29
HETATM   29  C4  UNL     1      -3.411  -0.330  -1.437  1.00  0.00     0.031 A 
HETATM   30  C3  UNL     1      -4.755  -0.368  -1.398  1.00  0.00     0.002 A 
HETATM   31  C2  UNL     1      -5.485  -0.308  -2.521  1.00  0.00     0.027 A 
HETATM   32  C1  UNL     1      -4.893  -0.210  -3.721  1.00  0.00     0.133 A 
HETATM   33  C6  UNL     1      -3.550  -0.178  -3.745  1.00  0.00     0.054 A 
HETATM   34  O8  UNL     1      -5.617  -0.148  -4.870  1.00  0.00    -0.190 OA
HETATM   35  C5  UNL     1      -2.796  -0.235  -2.633  1.00  0.00     0.131 A 
HETATM   36  O1  UNL     1      -1.439  -0.200  -2.745  1.00  0.00    -0.190 OA
ENDBRANCH   1  29
TORSDOF 4
