REMARK  3 active torsions:
REMARK  status: ('A' for Active; 'I' for Inactive)
REMARK    1  A    between atoms: C1_1  and  O3_18 
REMARK    2  A    between atoms: C4_4  and  C7_7 
REMARK    3  A    between atoms: C8_8  and  C9_9 
ROOT
HETATM    1  C7  UNL     1       2.454  -0.112  -0.182  1.00  0.00     0.000 C 
HETATM    2  C8  UNL     1       2.129  -1.417  -0.119  1.00  0.00     0.000 C 
ENDROOT
BRANCH   2   3
HETATM    3  C9  UNL     1       0.947  -2.061  -0.232  1.00  0.00     0.002 A 
HETATM    4  C10 UNL     1      -0.165  -1.490  -0.742  1.00  0.00     0.026 A 
HETATM    5  C11 UNL     1      -1.292  -2.204  -0.849  1.00  0.00     0.119 A 
HETATM    6  C12 UNL     1      -1.335  -3.491  -0.492  1.00  0.00     0.119 A 
HETATM    7  O2  UNL     1      -2.378  -1.829  -1.283  1.00  0.00    -0.300 OA
HETATM    8  C13 UNL     1      -0.240  -4.100  -0.026  1.00  0.00     0.026 A 
HETATM    9  O1  UNL     1      -2.449  -3.973  -0.673  1.00  0.00    -0.300 OA
HETATM   10  C14 UNL     1       0.888  -3.376   0.082  1.00  0.00     0.002 A 
HETATM   11  C15 UNL     1      -3.276  -2.938  -1.209  1.00  0.00     0.304 A 
ENDBRANCH   2   3
BRANCH   1  12
HETATM   12  C4  UNL     1       1.739   1.009   0.055  1.00  0.00     0.000 A 
HETATM   13  C3  UNL     1       2.259   2.208  -0.273  1.00  0.00     0.002 A 
HETATM   14  C2  UNL     1       1.596   3.351  -0.039  1.00  0.00     0.024 A 
HETATM   15  C1  UNL     1       0.392   3.384   0.562  1.00  0.00     0.094 A 
HETATM   16  C6  UNL     1      -0.099   2.187   0.935  1.00  0.00     0.024 A 
HETATM   17  C5  UNL     1       0.560   1.039   0.703  1.00  0.00     0.002 A 
BRANCH  15  18
HETATM   18  O3  UNL     1      -0.222   4.598   0.758  1.00  0.00    -0.328 OA
HETATM   19  C16 UNL     1      -1.513   4.621   1.323  1.00  0.00     0.181 C 
ENDBRANCH  15  18
ENDBRANCH   1  12
TORSDOF 3
