REMARK  11 active torsions:
REMARK  status: ('A' for Active; 'I' for Inactive)
REMARK    1  A    between atoms: C1_1  and  C2_2 
REMARK    2  A    between atoms: C7_8  and  O3_14 
REMARK    3  A    between atoms: C8_9  and  C9_11 
REMARK    4  A    between atoms: O3_14  and  C12_15 
REMARK    5  A    between atoms: C12_15  and  C13_16 
REMARK    6  A    between atoms: C23_28  and  C25_31 
REMARK    7  A    between atoms: C30_40  and  C31_41 
REMARK    8  A    between atoms: C32_42  and  C33_43 
REMARK    9  A    between atoms: C33_43  and  C34_44 
REMARK   10  A    between atoms: C34_44  and  C35_45 
REMARK   11  A    between atoms: C35_45  and  C36_46 
ROOT
HETATM    1  C2  UNL     1       1.013   0.077  -1.036  1.00  0.00     0.318 C 
HETATM    2  O1  UNL     1       2.271  -0.414  -1.438  1.00  0.00    -0.309 OA
HETATM    3  C3  UNL     1       2.955  -0.477  -0.225  1.00  0.00     0.156 C 
HETATM    4  C4  UNL     1       2.438  -1.730   0.519  1.00  0.00     0.086 C 
HETATM    5  C5  UNL     1       0.970  -1.402   0.871  1.00  0.00     0.111 C 
HETATM    6  C6  UNL     1       1.038  -0.316   2.016  1.00  0.00     0.056 C 
HETATM    7  C7  UNL     1       2.153   0.746   1.864  1.00  0.00     0.158 C 
HETATM    8  C8  UNL     1       2.571   0.861   0.403  1.00  0.00     0.163 C 
HETATM    9  O2  UNL     1       1.384   1.200  -0.268  1.00  0.00    -0.306 OA
HETATM   10  C19 UNL     1      -0.302   0.367   2.362  1.00  0.00     0.005 C 
HETATM   11  O5  UNL     1       0.326  -0.901  -0.264  1.00  0.00    -0.314 OA
HETATM   12  C20 UNL     1       0.074  -2.556   1.400  1.00  0.00     0.085 C 
HETATM   13  C21 UNL     1       0.210  -4.016   0.947  1.00  0.00     0.217 C 
HETATM   14  C22 UNL     1       0.756  -4.252  -0.447  1.00  0.00     0.217 C 
HETATM   15  C23 UNL     1       2.265  -4.161  -0.532  1.00  0.00     0.179 A 
HETATM   16  C24 UNL     1       3.000  -2.976  -0.189  1.00  0.00     0.150 A 
HETATM   17  O6  UNL     1       2.683  -3.021  -1.558  1.00  0.00    -0.351 OA
HETATM   18  O8  UNL     1       0.062  -3.455  -1.393  1.00  0.00    -0.218 OA
HETATM   19  C26 UNL     1      -1.220  -4.555   0.976  1.00  0.00     0.199 C 
HETATM   20  C27 UNL     1      -2.091  -3.526   0.983  1.00  0.00     0.011 C 
HETATM   21  C28 UNL     1      -1.413  -2.382   1.134  1.00  0.00    -0.022 C 
HETATM   22  C29 UNL     1      -3.581  -3.656   0.872  1.00  0.00     0.034 C 
HETATM   23  O9  UNL     1      -1.446  -5.740   0.946  1.00  0.00    -0.289 OA
HETATM   24  O10 UNL     1       0.946  -4.788   1.871  1.00  0.00    -0.215 OA
ENDROOT
BRANCH   1  25
HETATM   25  C1  UNL     1       0.136   0.486  -2.196  1.00  0.00     0.061 C 
HETATM   26  C30 UNL     1      -0.935   1.273  -2.002  1.00  0.00     0.003 C 
BRANCH  26  27
HETATM   27  C31 UNL     1      -1.776   1.659  -2.975  1.00  0.00    -0.005 C 
HETATM   28  C32 UNL     1      -2.832   2.451  -2.725  1.00  0.00    -0.026 C 
BRANCH  28  29
HETATM   29  C33 UNL     1      -3.827   2.901  -3.766  1.00  0.00     0.026 C 
BRANCH  29  30
HETATM   30  C34 UNL     1      -5.248   2.470  -3.370  1.00  0.00     0.005 C 
BRANCH  30  31
HETATM   31  C35 UNL     1      -6.301   2.934  -4.388  1.00  0.00     0.000 C 
BRANCH  31  32
HETATM   32  C36 UNL     1      -7.720   2.510  -3.973  1.00  0.00     0.000 C 
HETATM   33  C37 UNL     1      -8.773   2.977  -4.986  1.00  0.00     0.000 C 
ENDBRANCH  31  32
ENDBRANCH  30  31
ENDBRANCH  29  30
ENDBRANCH  28  29
ENDBRANCH  26  27
ENDBRANCH   1  25
BRANCH   8  34
HETATM   34  C9  UNL     1       3.598   1.978   0.206  1.00  0.00    -0.015 C 
HETATM   35  C10 UNL     1       3.065   3.379   0.004  1.00  0.00     0.029 C 
HETATM   36  C11 UNL     1       4.926   1.777   0.256  1.00  0.00    -0.007 C 
ENDBRANCH   8  34
BRANCH   7  37
HETATM   37  O3  UNL     1       3.250   0.455   2.689  1.00  0.00    -0.298 OA
BRANCH  37  38
HETATM   38  C12 UNL     1       4.045   1.456   3.207  1.00  0.00     0.296 C 
HETATM   39  O4  UNL     1       5.240   1.230   3.188  1.00  0.00    -0.259 OA
BRANCH  38  40
HETATM   40  C13 UNL     1       3.666   2.627   3.810  1.00  0.00     0.063 A 
HETATM   41  C14 UNL     1       4.599   3.553   4.121  1.00  0.00     0.005 A 
HETATM   42  C15 UNL     1       4.271   4.727   4.684  1.00  0.00     0.000 A 
HETATM   43  C16 UNL     1       2.991   5.004   4.972  1.00  0.00     0.000 A 
HETATM   44  C17 UNL     1       2.054   4.083   4.710  1.00  0.00     0.000 A 
HETATM   45  C18 UNL     1       2.393   2.912   4.147  1.00  0.00     0.005 A 
ENDBRANCH  38  40
ENDBRANCH  37  38
ENDBRANCH   7  37
BRANCH  15  46
HETATM   46  C25 UNL     1       3.018  -5.466  -0.773  1.00  0.00     0.214 C 
HETATM   47  O7  UNL     1       4.434  -5.384  -0.677  1.00  0.00    -0.218 OA
ENDBRANCH  15  46
TORSDOF 11
