REMARK  6 active torsions:
REMARK  status: ('A' for Active; 'I' for Inactive)
REMARK    1  A    between atoms: C4_4  and  C8_9 
REMARK    2  A    between atoms: C6_6  and  O1_7 
REMARK    3  A    between atoms: C8_9  and  C9_10 
REMARK    4  A    between atoms: C8_9  and  C17_19 
REMARK    5  A    between atoms: C10_11  and  C11_12 
REMARK    6  A    between atoms: C17_19  and  C18_20 
ROOT
HETATM    1  C8  UNL     1      -1.155  -1.346  -0.521  1.00  0.00     0.077 C 
ENDROOT
BRANCH   1   2
HETATM    2  C4  UNL     1      -0.162  -0.224  -0.777  1.00  0.00    -0.012 A 
HETATM    3  C3  UNL     1       1.155  -0.463  -0.884  1.00  0.00     0.024 A 
HETATM    4  C2  UNL     1       2.031   0.530  -1.101  1.00  0.00     0.133 A 
HETATM    5  C1  UNL     1       1.558   1.782  -1.225  1.00  0.00     0.051 A 
HETATM    6  O5  UNL     1       3.363   0.265  -1.190  1.00  0.00    -0.190 OA
HETATM    7  C6  UNL     1       0.247   2.082  -1.145  1.00  0.00     0.096 A 
HETATM    8  C5  UNL     1      -0.583   1.045  -0.923  1.00  0.00     0.021 A 
BRANCH   7   9
HETATM    9  O1  UNL     1      -0.294   3.339  -1.271  1.00  0.00    -0.328 OA
HETATM   10  C7  UNL     1       0.566   4.426  -1.524  1.00  0.00     0.181 C 
ENDBRANCH   7   9
ENDBRANCH   1   2
BRANCH   1  11
HETATM   11  C9  UNL     1      -0.617  -2.377   0.453  1.00  0.00    -0.019 C 
HETATM   12  C10 UNL     1      -0.040  -2.238   1.661  1.00  0.00    -0.004 C 
BRANCH  12  13
HETATM   13  C11 UNL     1       0.183  -1.169   2.454  1.00  0.00    -0.000 A 
HETATM   14  C12 UNL     1       0.979  -1.320   3.534  1.00  0.00     0.002 A 
HETATM   15  C13 UNL     1       1.282  -0.294   4.344  1.00  0.00     0.027 A 
HETATM   16  C14 UNL     1       0.790   0.936   4.129  1.00  0.00     0.131 A 
HETATM   17  C15 UNL     1      -0.042   1.085   3.086  1.00  0.00     0.027 A 
HETATM   18  O2  UNL     1       1.098   1.984   4.939  1.00  0.00    -0.190 OA
HETATM   19  C16 UNL     1      -0.344   0.056   2.279  1.00  0.00     0.002 A 
ENDBRANCH  12  13
ENDBRANCH   1  11
BRANCH   1  20
HETATM   20  C17 UNL     1      -1.501  -2.002  -1.871  1.00  0.00     0.193 C 
HETATM   21  O4  UNL     1      -2.541  -2.937  -1.694  1.00  0.00    -0.220 OA
BRANCH  20  22
HETATM   22  C18 UNL     1      -1.970  -1.038  -2.946  1.00  0.00     0.216 C 
HETATM   23  O3  UNL     1      -2.395  -1.804  -4.055  1.00  0.00    -0.218 OA
ENDBRANCH  20  22
ENDBRANCH   1  20
TORSDOF 6
