REMARK  7 active torsions:
REMARK  status: ('A' for Active; 'I' for Inactive)
REMARK    1  A    between atoms: C2_2  and  O4_22 
REMARK    2  A    between atoms: C5_5  and  C7_7 
REMARK    3  A    between atoms: C8_8  and  C9_9 
REMARK    4  A    between atoms: C10_10  and  C11_11 
REMARK    5  A    between atoms: C11_11  and  O1_12 
REMARK    6  A    between atoms: O1_12  and  C12_13 
REMARK    7  A    between atoms: C15_16  and  O2_19 
ROOT
HETATM    1  C9  UNL     1       0.003  -0.956   0.333  1.00  0.00     0.047 C 
HETATM    2  C10 UNL     1      -0.581   0.252   0.349  1.00  0.00     0.015 C 
ENDROOT
BRANCH   1   3
HETATM    3  C8  UNL     1       1.309  -1.089   0.411  1.00  0.00    -0.059 C 
HETATM    4  C7  UNL     1       2.512  -1.222   0.486  1.00  0.00    -0.059 C 
BRANCH   4   5
HETATM    5  C5  UNL     1       3.816  -1.380   0.568  1.00  0.00     0.044 A 
HETATM    6  C4  UNL     1       4.344  -2.575   0.867  1.00  0.00     0.038 A 
HETATM    7  C3  UNL     1       5.672  -2.781   0.955  1.00  0.00     0.154 A 
HETATM    8  C2  UNL     1       6.522  -1.745   0.755  1.00  0.00     0.119 A 
HETATM    9  O3  UNL     1       6.090  -4.037   1.269  1.00  0.00    -0.188 OA
HETATM   10  C1  UNL     1       5.970  -0.554   0.442  1.00  0.00     0.027 A 
HETATM   11  C6  UNL     1       4.648  -0.354   0.350  1.00  0.00     0.010 A 
BRANCH   8  12
HETATM   12  O4  UNL     1       7.898  -1.795   0.790  1.00  0.00    -0.326 OA
HETATM   13  C19 UNL     1       8.572  -3.028   0.728  1.00  0.00     0.181 C 
ENDBRANCH   8  12
ENDBRANCH   4   5
ENDBRANCH   1   3
BRANCH   2  14
HETATM   14  C11 UNL     1      -2.076   0.460   0.279  1.00  0.00     0.176 C 
BRANCH  14  15
HETATM   15  O1  UNL     1      -2.398   1.343  -0.776  1.00  0.00    -0.326 OA
BRANCH  15  16
HETATM   16  C12 UNL     1      -3.699   1.768  -0.907  1.00  0.00     0.095 A 
HETATM   17  C13 UNL     1      -3.969   2.817  -1.706  1.00  0.00     0.026 A 
HETATM   18  C14 UNL     1      -5.210   3.301  -1.864  1.00  0.00     0.026 A 
HETATM   19  C15 UNL     1      -6.275   2.777  -1.229  1.00  0.00     0.094 A 
HETATM   20  C16 UNL     1      -6.005   1.739  -0.413  1.00  0.00     0.026 A 
HETATM   21  C17 UNL     1      -4.761   1.258  -0.253  1.00  0.00     0.026 A 
BRANCH  19  22
HETATM   22  O2  UNL     1      -7.515   3.330  -1.440  1.00  0.00    -0.328 OA
HETATM   23  C18 UNL     1      -8.618   2.808  -0.735  1.00  0.00     0.181 C 
ENDBRANCH  19  22
ENDBRANCH  15  16
ENDBRANCH  14  15
ENDBRANCH   2  14
TORSDOF 7
