REMARK  6 active torsions:
REMARK  status: ('A' for Active; 'I' for Inactive)
REMARK    1  A    between atoms: C5_5  and  C7_7 
REMARK    2  A    between atoms: C7_7  and  O1_8 
REMARK    3  A    between atoms: C7_7  and  C23_27 
REMARK    4  A    between atoms: O1_8  and  C8_9 
REMARK    5  A    between atoms: C16_18  and  C17_20 
REMARK    6  A    between atoms: C24_28  and  C29_36 
ROOT
HETATM    1  C7  UNL     1       1.611   0.237   0.876  1.00  0.00     0.171 C 
ENDROOT
BRANCH   1   2
HETATM    2  C5  UNL     1       2.181   0.704   2.215  1.00  0.00     0.007 A 
HETATM    3  C4  UNL     1       2.108  -0.060   3.320  1.00  0.00    -0.002 A 
HETATM    4  C3  UNL     1       2.622   0.358   4.487  1.00  0.00    -0.000 A 
HETATM    5  C2  UNL     1       3.215   1.557   4.571  1.00  0.00    -0.000 A 
HETATM    6  C1  UNL     1       3.288   2.336   3.481  1.00  0.00    -0.000 A 
HETATM    7  C6  UNL     1       2.772   1.909   2.317  1.00  0.00    -0.002 A 
ENDBRANCH   1   2
BRANCH   1   8
HETATM    8  O1  UNL     1       0.756   1.272   0.415  1.00  0.00    -0.326 OA
BRANCH   8   9
HETATM    9  C8  UNL     1      -0.288   0.974  -0.427  1.00  0.00     0.099 A 
HETATM   10  C9  UNL     1      -1.371   1.766  -0.493  1.00  0.00     0.049 A 
HETATM   11  C10 UNL     1      -2.441   1.530  -1.279  1.00  0.00     0.101 A 
HETATM   12  C11 UNL     1      -2.449   0.398  -2.019  1.00  0.00     0.083 A 
HETATM   13  O3  UNL     1      -3.485   2.418  -1.209  1.00  0.00    -0.328 OA
HETATM   14  C12 UNL     1      -1.408  -0.460  -1.960  1.00  0.00     0.138 A 
HETATM   15  C14 UNL     1      -3.511   0.132  -2.829  1.00  0.00     0.180 C 
HETATM   16  C13 UNL     1      -0.378  -0.138  -1.167  1.00  0.00     0.052 A 
HETATM   17  O2  UNL     1      -1.331  -1.650  -2.624  1.00  0.00    -0.190 OA
HETATM   18  C15 UNL     1      -4.612   1.173  -2.905  1.00  0.00     0.104 C 
HETATM   19  O4  UNL     1      -3.623  -0.852  -3.527  1.00  0.00    -0.291 OA
HETATM   20  C16 UNL     1      -4.748   1.953  -1.607  1.00  0.00     0.151 C 
BRANCH  20  21
HETATM   21  C17 UNL     1      -5.503   1.166  -0.541  1.00  0.00     0.005 A 
HETATM   22  C18 UNL     1      -6.822   1.382  -0.368  1.00  0.00    -0.002 A 
HETATM   23  C19 UNL     1      -7.535   0.701   0.542  1.00  0.00    -0.000 A 
HETATM   24  C20 UNL     1      -6.939  -0.227   1.303  1.00  0.00    -0.000 A 
HETATM   25  C21 UNL     1      -5.629  -0.463   1.143  1.00  0.00    -0.000 A 
HETATM   26  C22 UNL     1      -4.925   0.227   0.232  1.00  0.00    -0.002 A 
ENDBRANCH  20  21
ENDBRANCH   8   9
ENDBRANCH   1   8
BRANCH   1  27
HETATM   27  C23 UNL     1       2.734  -0.102  -0.130  1.00  0.00     0.156 C 
HETATM   28  C24 UNL     1       2.817  -1.518  -0.745  1.00  0.00     0.118 C 
HETATM   29  C25 UNL     1       4.316  -1.840  -0.774  1.00  0.00     0.161 C 
HETATM   30  C26 UNL     1       4.961  -0.570  -0.278  1.00  0.00     0.153 C 
HETATM   31  O6  UNL     1       4.789  -2.075  -2.068  1.00  0.00    -0.301 OA
HETATM   32  O5  UNL     1       3.995   0.132   0.439  1.00  0.00    -0.353 OA
HETATM   33  C27 UNL     1       5.420   0.121  -1.554  1.00  0.00     0.128 C 
HETATM   34  C28 UNL     1       5.471  -1.010  -2.560  1.00  0.00     0.275 C 
HETATM   35  O7  UNL     1       6.007  -0.970  -3.646  1.00  0.00    -0.264 OA
BRANCH  28  36
HETATM   36  C29 UNL     1       1.968  -2.622  -0.116  1.00  0.00     0.156 C 
HETATM   37  O8  UNL     1       0.981  -3.039  -0.685  1.00  0.00    -0.296 OA
HETATM   38  C30 UNL     1       2.370  -3.177   1.237  1.00  0.00     0.072 C 
ENDBRANCH  28  36
ENDBRANCH   1  27
TORSDOF 6
