REMARK  5 active torsions:
REMARK  status: ('A' for Active; 'I' for Inactive)
REMARK    1  A    between atoms: C4_4  and  C7_7 
REMARK    2  A    between atoms: C7_7  and  C8_8 
REMARK    3  A    between atoms: C7_7  and  C23_27 
REMARK    4  A    between atoms: C14_16  and  C17_20 
REMARK    5  A    between atoms: C23_27  and  C24_28 
ROOT
HETATM    1  C8  UNL     1      -0.366  -0.018   0.703  1.00  0.00     0.035 A 
HETATM    2  C9  UNL     1       0.722  -0.757   1.031  1.00  0.00     0.134 A 
HETATM    3  C10 UNL     1       1.969  -0.253   0.872  1.00  0.00     0.082 A 
HETATM    4  C11 UNL     1       2.155   1.003   0.413  1.00  0.00     0.101 A 
HETATM    5  C12 UNL     1       1.057   1.703   0.091  1.00  0.00     0.051 A 
HETATM    6  C13 UNL     1      -0.188   1.229   0.223  1.00  0.00     0.131 A 
HETATM    7  O1  UNL     1      -1.222   2.054  -0.082  1.00  0.00    -0.190 OA
HETATM    8  O2  UNL     1       3.374   1.597   0.216  1.00  0.00    -0.328 OA
HETATM    9  C14 UNL     1       4.411   0.713  -0.112  1.00  0.00     0.151 C 
HETATM   10  C15 UNL     1       4.447  -0.357   0.969  1.00  0.00     0.104 C 
HETATM   11  C16 UNL     1       3.078  -0.975   1.202  1.00  0.00     0.180 C 
HETATM   12  O3  UNL     1       3.068  -2.089   1.675  1.00  0.00    -0.291 OA
HETATM   13  O4  UNL     1       0.511  -2.030   1.479  1.00  0.00    -0.190 OA
ENDROOT
BRANCH   1  14
HETATM   14  C7  UNL     1      -1.752  -0.666   0.860  1.00  0.00     0.082 C 
BRANCH  14  15
HETATM   15  C4  UNL     1      -1.902  -1.603  -0.336  1.00  0.00    -0.016 A 
HETATM   16  C3  UNL     1      -2.048  -2.930  -0.166  1.00  0.00    -0.004 A 
HETATM   17  C2  UNL     1      -2.183  -3.756  -1.215  1.00  0.00    -0.000 A 
HETATM   18  C1  UNL     1      -2.180  -3.261  -2.462  1.00  0.00    -0.000 A 
HETATM   19  C6  UNL     1      -2.047  -1.940  -2.648  1.00  0.00    -0.000 A 
HETATM   20  C5  UNL     1      -1.912  -1.122  -1.593  1.00  0.00    -0.004 A 
ENDBRANCH  14  15
BRANCH  14  21
HETATM   21  C23 UNL     1      -3.052   0.140   1.064  1.00  0.00     0.191 C 
HETATM   22  O8  UNL     1      -4.121  -0.758   0.817  1.00  0.00    -0.220 OA
BRANCH  21  23
HETATM   23  C24 UNL     1      -3.336   0.709   2.466  1.00  0.00     0.190 C 
HETATM   24  O5  UNL     1      -4.665   1.171   2.448  1.00  0.00    -0.295 OA
HETATM   25  C25 UNL     1      -4.904   2.480   2.135  1.00  0.00     0.296 C 
HETATM   26  C26 UNL     1      -3.939   3.432   2.069  1.00  0.00     0.066 C 
HETATM   27  O7  UNL     1      -6.041   2.823   1.879  1.00  0.00    -0.259 OA
HETATM   28  C27 UNL     1      -2.695   3.124   2.450  1.00  0.00     0.014 C 
HETATM   29  C28 UNL     1      -2.405   1.772   3.028  1.00  0.00     0.204 C 
HETATM   30  O6  UNL     1      -1.047   1.443   2.838  1.00  0.00    -0.216 OA
ENDBRANCH  21  23
ENDBRANCH  14  21
ENDBRANCH   1  14
BRANCH   9  31
HETATM   31  C17 UNL     1       4.272   0.257  -1.557  1.00  0.00     0.005 A 
HETATM   32  C18 UNL     1       4.511   1.145  -2.542  1.00  0.00    -0.002 A 
HETATM   33  C19 UNL     1       4.401   0.807  -3.836  1.00  0.00    -0.000 A 
HETATM   34  C20 UNL     1       4.041  -0.440  -4.172  1.00  0.00    -0.000 A 
HETATM   35  C21 UNL     1       3.796  -1.337  -3.206  1.00  0.00    -0.000 A 
HETATM   36  C22 UNL     1       3.913  -0.990  -1.915  1.00  0.00    -0.002 A 
ENDBRANCH   9  31
TORSDOF 5
