REMARK  4 active torsions:
REMARK  status: ('A' for Active; 'I' for Inactive)
REMARK    1  A    between atoms: C5_5  and  C7_7 
REMARK    2  A    between atoms: C7_7  and  C8_9 
REMARK    3  A    between atoms: C8_9  and  C9_11 
REMARK    4  A    between atoms: C9_11  and  C10_12 
ROOT
HETATM    1  C8  UNL     1       0.557   0.798   1.127  1.00  0.00     0.211 C 
HETATM    2  O2  UNL     1       0.960   1.683   0.098  1.00  0.00    -0.215 OA
ENDROOT
BRANCH   1   3
HETATM    3  C7  UNL     1       1.488  -0.408   1.137  1.00  0.00     0.209 C 
HETATM    4  O1  UNL     1       1.105  -1.305   2.163  1.00  0.00    -0.215 OA
BRANCH   3   5
HETATM    5  C5  UNL     1       1.564  -1.130  -0.194  1.00  0.00     0.011 A 
HETATM    6  C4  UNL     1       2.455  -0.745  -1.125  1.00  0.00    -0.002 A 
HETATM    7  C3  UNL     1       2.539  -1.370  -2.309  1.00  0.00    -0.000 A 
HETATM    8  C2  UNL     1       1.725  -2.401  -2.581  1.00  0.00    -0.000 A 
HETATM    9  C1  UNL     1       0.833  -2.799  -1.661  1.00  0.00    -0.000 A 
HETATM   10  C6  UNL     1       0.758  -2.169  -0.479  1.00  0.00    -0.002 A 
ENDBRANCH   3   5
ENDBRANCH   1   3
BRANCH   1  11
HETATM   11  C9  UNL     1      -0.906   0.472   0.958  1.00  0.00     0.034 C 
BRANCH  11  12
HETATM   12  C10 UNL     1      -1.863   1.406   0.855  1.00  0.00     0.102 A 
HETATM   13  O3  UNL     1      -1.621   2.613   0.892  1.00  0.00    -0.273 OA
HETATM   14  C11 UNL     1      -2.856   3.285   0.755  1.00  0.00     0.300 A 
HETATM   15  C12 UNL     1      -3.806   2.331   0.646  1.00  0.00     0.071 A 
HETATM   16  O4  UNL     1      -3.002   4.484   0.751  1.00  0.00    -0.259 OA
HETATM   17  C13 UNL     1      -3.175   1.151   0.709  1.00  0.00     0.030 A 
ENDBRANCH  11  12
ENDBRANCH   1  11
TORSDOF 4
