REMARK  8 active torsions:
REMARK  status: ('A' for Active; 'I' for Inactive)
REMARK    1  A    between atoms: C5_5  and  C7_7 
REMARK    2  A    between atoms: C8_8  and  C9_9 
REMARK       I    between atoms: C9_9  and  N1_10 
REMARK    3  A    between atoms: N1_10  and  C10_11 
REMARK    4  A    between atoms: C10_11  and  C11_12 
REMARK    5  A    between atoms: C11_12  and  C12_13 
REMARK    6  A    between atoms: C12_13  and  C13_14 
REMARK    7  A    between atoms: C13_14  and  N2_15 
REMARK       I    between atoms: N2_15  and  C14_16 
REMARK    8  A    between atoms: C14_16  and  C15_17 
ROOT
HETATM    1  C9  UNL     1      -2.654   0.122  -2.038  1.00  0.00     0.275 C 
HETATM    2  N1  UNL     1      -3.541  -0.872  -1.718  1.00  0.00    -0.234 NA
HETATM    3  O2  UNL     1      -1.655  -0.110  -2.674  1.00  0.00    -0.266 OA
ENDROOT
BRANCH   2   4
HETATM    4  C10 UNL     1      -3.241  -2.289  -1.949  1.00  0.00     0.129 C 
BRANCH   4   5
HETATM    5  C11 UNL     1      -2.522  -2.903  -0.731  1.00  0.00     0.029 C 
BRANCH   5   6
HETATM    6  C12 UNL     1      -1.238  -2.144  -0.361  1.00  0.00     0.029 C 
BRANCH   6   7
HETATM    7  C13 UNL     1      -0.437  -2.757   0.794  1.00  0.00     0.129 C 
BRANCH   7   8
HETATM    8  N2  UNL     1       0.633  -1.812   1.127  1.00  0.00    -0.235 NA
HETATM    9  C14 UNL     1       1.476  -1.991   2.187  1.00  0.00     0.271 C 
HETATM   10  O1  UNL     1       1.394  -2.976   2.883  1.00  0.00    -0.266 OA
BRANCH   9  11
HETATM   11  C15 UNL     1       2.379  -0.985   2.374  1.00  0.00     0.031 C 
HETATM   12  C16 UNL     1       3.252  -1.100   3.396  1.00  0.00    -0.025 C 
HETATM   13  C17 UNL     1       4.341  -0.140   3.806  1.00  0.00     0.030 C 
HETATM   14  C18 UNL     1       2.361   0.212   1.442  1.00  0.00     0.036 C 
ENDBRANCH   9  11
ENDBRANCH   7   8
ENDBRANCH   6   7
ENDBRANCH   5   6
ENDBRANCH   4   5
ENDBRANCH   2   4
BRANCH   1  15
HETATM   15  C8  UNL     1      -3.010   1.333  -1.536  1.00  0.00     0.062 C 
HETATM   16  C7  UNL     1      -2.272   2.452  -1.393  1.00  0.00     0.005 C 
BRANCH  16  17
HETATM   17  C5  UNL     1      -0.955   2.733  -1.508  1.00  0.00     0.000 A 
HETATM   18  C4  UNL     1       0.041   1.825  -1.529  1.00  0.00     0.000 A 
HETATM   19  C3  UNL     1       1.333   2.178  -1.619  1.00  0.00     0.000 A 
HETATM   20  C2  UNL     1       1.678   3.472  -1.663  1.00  0.00     0.000 A 
HETATM   21  C1  UNL     1       0.714   4.399  -1.594  1.00  0.00     0.000 A 
HETATM   22  C6  UNL     1      -0.574   4.029  -1.506  1.00  0.00     0.000 A 
ENDBRANCH  16  17
ENDBRANCH   1  15
TORSDOF 8
