REMARK  2 active torsions:
REMARK  status: ('A' for Active; 'I' for Inactive)
REMARK    1  A    between atoms: C9_9  and  C10_10 
REMARK    2  A    between atoms: C11_11  and  C12_12 
ROOT
HETATM    1  C1  UNL     1      -2.008  -0.746  -1.183  1.00  0.00     0.037 C 
HETATM    2  C2  UNL     1      -1.970  -2.251  -0.970  1.00  0.00     0.155 C 
HETATM    3  C3  UNL     1      -1.276  -2.561   0.346  1.00  0.00     0.067 C 
HETATM    4  C4  UNL     1       0.147  -1.993   0.403  1.00  0.00     0.144 C 
HETATM    5  C5  UNL     1       0.155  -0.476   0.105  1.00  0.00    -0.018 C 
HETATM    6  C6  UNL     1      -0.620  -0.058  -1.169  1.00  0.00     0.020 C 
HETATM    7  C7  UNL     1      -0.957   1.446  -1.343  1.00  0.00     0.004 C 
HETATM    8  C8  UNL     1       0.185  -0.431  -2.436  1.00  0.00     0.004 C 
HETATM    9  C9  UNL     1       0.862   0.329   0.930  1.00  0.00    -0.006 C 
HETATM   10  C14 UNL     1       0.736  -2.450   1.751  1.00  0.00     0.037 C 
HETATM   11  O2  UNL     1       0.934  -2.647  -0.572  1.00  0.00    -0.222 OA
HETATM   12  O3  UNL     1      -3.288  -2.746  -0.922  1.00  0.00    -0.223 OA
ENDROOT
BRANCH   9  13
HETATM   13  C10 UNL     1       1.097   1.653   0.942  1.00  0.00     0.002 C 
HETATM   14  C11 UNL     1       1.826   2.260   1.899  1.00  0.00     0.037 C 
BRANCH  14  15
HETATM   15  C12 UNL     1       2.078   3.595   1.968  1.00  0.00     0.173 C 
HETATM   16  O1  UNL     1       2.748   4.039   2.875  1.00  0.00    -0.291 OA
HETATM   17  C13 UNL     1       1.524   4.553   0.925  1.00  0.00     0.077 C 
ENDBRANCH  14  15
ENDBRANCH   9  13
TORSDOF 2
