REMARK  0 active torsions:
REMARK  status: ('A' for Active; 'I' for Inactive)
ROOT
HETATM    1  C1  UNL     1      -4.397   3.978   0.768  1.00  0.00     0.133 A 
HETATM    2  C2  UNL     1      -4.560   2.652   0.652  1.00  0.00     0.025 A 
HETATM    3  C3  UNL     1      -3.520   1.805   0.564  1.00  0.00     0.005 A 
HETATM    4  C4  UNL     1      -2.256   2.282   0.586  1.00  0.00     0.121 A 
HETATM    5  C5  UNL     1      -2.074   3.615   0.718  1.00  0.00     0.155 A 
HETATM    6  C6  UNL     1      -3.137   4.432   0.804  1.00  0.00     0.057 A 
HETATM    7  O1  UNL     1      -0.825   4.155   0.763  1.00  0.00    -0.188 OA
HETATM    8  O2  UNL     1      -1.179   1.435   0.489  1.00  0.00    -0.305 OA
HETATM    9  C7  UNL     1      -0.281   1.736  -0.503  1.00  0.00     0.102 A 
HETATM   10  C8  UNL     1       1.042   1.748  -0.253  1.00  0.00     0.021 A 
HETATM   11  C9  UNL     1       1.951   2.046  -1.197  1.00  0.00    -0.018 A 
HETATM   12  C10 UNL     1       3.435   2.021  -0.886  1.00  0.00     0.026 C 
HETATM   13  C11 UNL     1       3.935   0.569  -0.940  1.00  0.00     0.005 C 
HETATM   14  C12 UNL     1       5.447   0.424  -0.719  1.00  0.00     0.000 C 
HETATM   15  C13 UNL     1       5.971  -1.020  -0.865  1.00  0.00     0.000 C 
HETATM   16  C14 UNL     1       5.352  -2.024   0.125  1.00  0.00     0.000 C 
HETATM   17  C15 UNL     1       4.061  -2.689  -0.391  1.00  0.00     0.000 C 
HETATM   18  C16 UNL     1       3.107  -3.074   0.750  1.00  0.00     0.000 C 
HETATM   19  C17 UNL     1       1.686  -3.429   0.278  1.00  0.00     0.000 C 
HETATM   20  C18 UNL     1       0.903  -2.220  -0.273  1.00  0.00     0.000 C 
HETATM   21  C19 UNL     1      -0.589  -2.518  -0.499  1.00  0.00     0.000 C 
HETATM   22  C20 UNL     1      -1.408  -2.495   0.803  1.00  0.00     0.000 C 
HETATM   23  C21 UNL     1      -2.841  -3.009   0.589  1.00  0.00     0.000 C 
HETATM   24  C22 UNL     1      -3.717  -2.873   1.845  1.00  0.00     0.000 C 
HETATM   25  C23 UNL     1      -4.699  -1.689   1.842  1.00  0.00     0.000 C 
HETATM   26  C24 UNL     1      -4.080  -0.280   1.849  1.00  0.00     0.005 C 
HETATM   27  C25 UNL     1      -3.823   0.319   0.455  1.00  0.00     0.029 C 
HETATM   28  C26 UNL     1       1.513   2.345  -2.431  1.00  0.00     0.023 A 
HETATM   29  C27 UNL     1       0.205   2.343  -2.734  1.00  0.00     0.133 A 
HETATM   30  C28 UNL     1      -0.665   2.029  -1.760  1.00  0.00     0.052 A 
HETATM   31  O3  UNL     1      -0.231   2.646  -3.986  1.00  0.00    -0.190 OA
HETATM   32  O4  UNL     1      -5.458   4.824   0.857  1.00  0.00    -0.190 OA
ENDROOT
TORSDOF 0
