REMARK  8 active torsions:
REMARK  status: ('A' for Active; 'I' for Inactive)
REMARK    1  A    between atoms: C5_5  and  C7_8 
REMARK    2  A    between atoms: C7_8  and  C8_9 
REMARK    3  A    between atoms: C9_10  and  C11_12 
REMARK    4  A    between atoms: C11_12  and  C12_13 
REMARK    5  A    between atoms: C12_13  and  C13_14 
REMARK    6  A    between atoms: C14_15  and  C16_17 
REMARK    7  A    between atoms: C16_17  and  C17_18 
REMARK    8  A    between atoms: C17_18  and  C18_19 
ROOT
HETATM    1  C8  UNL     1       2.274  -1.917   0.548  1.00  0.00    -0.008 C 
HETATM    2  C9  UNL     1       0.946  -1.705   0.455  1.00  0.00    -0.044 C 
HETATM    3  C10 UNL     1      -0.077  -2.793   0.688  1.00  0.00     0.026 C 
ENDROOT
BRANCH   2   4
HETATM    4  C11 UNL     1       0.449  -0.315   0.092  1.00  0.00     0.027 C 
BRANCH   4   5
HETATM    5  C12 UNL     1      -1.076  -0.127   0.046  1.00  0.00     0.030 C 
BRANCH   5   6
HETATM    6  C13 UNL     1      -1.500   1.273  -0.329  1.00  0.00    -0.034 C 
HETATM    7  C14 UNL     1      -2.775   1.687  -0.449  1.00  0.00    -0.048 C 
HETATM    8  C15 UNL     1      -3.948   0.763  -0.211  1.00  0.00     0.026 C 
BRANCH   7   9
HETATM    9  C16 UNL     1      -3.061   3.128  -0.836  1.00  0.00     0.026 C 
BRANCH   9  10
HETATM   10  C17 UNL     1      -4.546   3.512  -0.939  1.00  0.00     0.030 C 
BRANCH  10  11
HETATM   11  C18 UNL     1      -4.778   4.952  -1.325  1.00  0.00    -0.034 C 
HETATM   12  C19 UNL     1      -5.990   5.516  -1.478  1.00  0.00    -0.048 C 
HETATM   13  C20 UNL     1      -6.146   6.967  -1.866  1.00  0.00     0.026 C 
HETATM   14  C21 UNL     1      -7.291   4.773  -1.282  1.00  0.00     0.026 C 
ENDBRANCH  10  11
ENDBRANCH   9  10
ENDBRANCH   7   9
ENDBRANCH   5   6
ENDBRANCH   4   5
ENDBRANCH   2   4
BRANCH   1  15
HETATM   15  C7  UNL     1       2.918  -3.237   0.888  1.00  0.00     0.004 C 
BRANCH  15  16
HETATM   16  C5  UNL     1       4.424  -3.486   0.946  1.00  0.00     0.051 A 
HETATM   17  C4  UNL     1       4.807  -4.741   1.281  1.00  0.00     0.133 A 
HETATM   18  C3  UNL     1       6.112  -5.049   1.357  1.00  0.00     0.023 A 
HETATM   19  O2  UNL     1       3.894  -5.718   1.548  1.00  0.00    -0.190 OA
HETATM   20  C2  UNL     1       7.071  -4.147   1.109  1.00  0.00    -0.018 A 
HETATM   21  C1  UNL     1       6.674  -2.912   0.777  1.00  0.00     0.023 A 
HETATM   22  C22 UNL     1       8.529  -4.526   1.205  1.00  0.00     0.031 C 
HETATM   23  C6  UNL     1       5.378  -2.562   0.690  1.00  0.00     0.133 A 
HETATM   24  O1  UNL     1       5.111  -1.277   0.341  1.00  0.00    -0.190 OA
ENDBRANCH  15  16
ENDBRANCH   1  15
TORSDOF 8
