REMARK  2 active torsions:
REMARK  status: ('A' for Active; 'I' for Inactive)
REMARK    1  A    between atoms: C1_1  and  O4_23 
REMARK    2  A    between atoms: C2_2  and  O3_21 
ROOT
HETATM    1  C1  UNL     1       1.291  -2.279   0.146  1.00  0.00     0.116 C 
HETATM    2  C2  UNL     1       0.070  -1.698   0.072  1.00  0.00     0.116 C 
HETATM    3  C3  UNL     1      -0.059  -0.340  -0.032  1.00  0.00     0.026 A 
HETATM    4  C4  UNL     1       1.070   0.396   0.148  1.00  0.00     0.023 A 
HETATM    5  C5  UNL     1       2.283  -0.173   0.338  1.00  0.00     0.047 A 
HETATM    6  C6  UNL     1       2.368  -1.509   0.331  1.00  0.00     0.030 C 
HETATM    7  C7  UNL     1       3.441   0.526   0.535  1.00  0.00     0.253 A 
HETATM    8  C8  UNL     1       3.374   1.868   0.543  1.00  0.00     0.318 A 
HETATM    9  N1  UNL     1       2.158   2.412   0.355  1.00  0.00    -0.206 NA
HETATM   10  C9  UNL     1       1.013   1.739   0.159  1.00  0.00     0.081 A 
HETATM   11  C10 UNL     1      -0.129   2.422  -0.005  1.00  0.00    -0.004 A 
HETATM   12  C11 UNL     1      -1.247   1.704  -0.238  1.00  0.00    -0.002 A 
HETATM   13  C12 UNL     1      -1.220   0.344  -0.269  1.00  0.00     0.002 A 
HETATM   14  C13 UNL     1      -2.414  -0.220  -0.573  1.00  0.00     0.000 A 
HETATM   15  C14 UNL     1      -3.556   0.448  -0.789  1.00  0.00     0.000 A 
HETATM   16  C15 UNL     1      -3.558   1.778  -0.720  1.00  0.00    -0.000 A 
HETATM   17  C16 UNL     1      -2.396   2.383  -0.452  1.00  0.00    -0.000 A 
HETATM   18  C17 UNL     1      -0.145   3.945   0.057  1.00  0.00     0.033 C 
HETATM   19  O1  UNL     1       4.319   2.606   0.706  1.00  0.00    -0.262 OA
HETATM   20  O2  UNL     1       4.509  -0.026   0.699  1.00  0.00    -0.281 OA
ENDROOT
BRANCH   1  21
HETATM   21  O4  UNL     1       1.438  -3.646   0.222  1.00  0.00    -0.326 OA
HETATM   22  C19 UNL     1       1.591  -4.274  -1.031  1.00  0.00     0.181 C 
ENDBRANCH   1  21
BRANCH   2  23
HETATM   23  O3  UNL     1      -0.961  -2.598  -0.045  1.00  0.00    -0.326 OA
HETATM   24  C18 UNL     1      -1.565  -2.934   1.186  1.00  0.00     0.181 C 
ENDBRANCH   2  23
TORSDOF 2
