REMARK  6 active torsions:
REMARK  status: ('A' for Active; 'I' for Inactive)
REMARK    1  A    between atoms: C2_2  and  O5_31 
REMARK    2  A    between atoms: C6_6  and  C7_7 
REMARK    3  A    between atoms: C6_6  and  C12_12 
REMARK    4  A    between atoms: C7_7  and  C8_8 
REMARK    5  A    between atoms: C12_12  and  C13_13 
REMARK    6  A    between atoms: C18_19  and  C20_22 
ROOT
HETATM    1  C1  UNL     1       2.416  -0.986  -0.566  1.00  0.00     0.201 A 
HETATM    2  C2  UNL     1       2.808   0.246  -0.994  1.00  0.00     0.129 A 
HETATM    3  C3  UNL     1       1.894   1.236  -1.021  1.00  0.00     0.032 A 
HETATM    4  C4  UNL     1       0.597   1.168  -0.668  1.00  0.00     0.060 A 
HETATM    5  C5  UNL     1       0.105   0.004  -0.231  1.00  0.00     0.088 A 
HETATM    6  C6  UNL     1       0.968  -1.242  -0.139  1.00  0.00     0.105 A 
HETATM    7  O1  UNL     1      -1.184  -0.136   0.155  1.00  0.00    -0.309 OA
HETATM    8  C17 UNL     1      -1.963   0.969   0.042  1.00  0.00     0.125 A 
HETATM    9  C18 UNL     1      -1.548   2.179  -0.397  1.00  0.00     0.064 A 
HETATM   10  C19 UNL     1      -0.223   2.259  -0.748  1.00  0.00     0.199 A 
HETATM   11  O2  UNL     1       0.296   3.270  -1.162  1.00  0.00    -0.286 OA
HETATM   12  O6  UNL     1       3.178  -1.924  -0.504  1.00  0.00    -0.289 OA
ENDROOT
BRANCH   6  13
HETATM   13  C7  UNL     1       0.354  -2.281  -1.117  1.00  0.00     0.039 C 
BRANCH  13  14
HETATM   14  C8  UNL     1       0.922  -3.680  -1.093  1.00  0.00    -0.034 C 
HETATM   15  C9  UNL     1       0.928  -4.563  -2.108  1.00  0.00    -0.048 C 
HETATM   16  C10 UNL     1       1.472  -5.961  -1.919  1.00  0.00     0.026 C 
HETATM   17  C11 UNL     1       0.388  -4.294  -3.493  1.00  0.00     0.026 C 
ENDBRANCH  13  14
ENDBRANCH   6  13
BRANCH   6  18
HETATM   18  C12 UNL     1       0.957  -1.730   1.330  1.00  0.00     0.039 C 
BRANCH  18  19
HETATM   19  C13 UNL     1       1.411  -0.682   2.318  1.00  0.00    -0.034 C 
HETATM   20  C14 UNL     1       1.312  -0.780   3.655  1.00  0.00    -0.048 C 
HETATM   21  C15 UNL     1       1.792   0.328   4.564  1.00  0.00     0.026 C 
HETATM   22  C16 UNL     1       0.733  -1.976   4.372  1.00  0.00     0.026 C 
ENDBRANCH  18  19
ENDBRANCH   6  18
BRANCH   2  23
HETATM   23  O5  UNL     1       4.090   0.569  -1.388  1.00  0.00    -0.325 OA
HETATM   24  C27 UNL     1       5.146  -0.357  -1.290  1.00  0.00     0.181 C 
ENDBRANCH   2  23
BRANCH   9  25
HETATM   25  C20 UNL     1      -2.417   3.237  -0.470  1.00  0.00     0.007 A 
HETATM   26  C21 UNL     1      -2.079   4.503  -0.832  1.00  0.00     0.002 A 
HETATM   27  C22 UNL     1      -2.929   5.544  -0.915  1.00  0.00     0.026 A 
HETATM   28  C23 UNL     1      -4.213   5.337  -0.623  1.00  0.00     0.119 A 
HETATM   29  C24 UNL     1      -4.606   4.117  -0.257  1.00  0.00     0.119 A 
HETATM   30  O4  UNL     1      -5.146   6.135  -0.635  1.00  0.00    -0.300 OA
HETATM   31  C25 UNL     1      -3.737   3.100  -0.180  1.00  0.00     0.026 A 
HETATM   32  O3  UNL     1      -5.812   4.097  -0.026  1.00  0.00    -0.300 OA
HETATM   33  C26 UNL     1      -6.317   5.416  -0.246  1.00  0.00     0.304 A 
ENDBRANCH   9  25
TORSDOF 6
