REMARK  0 active torsions:
REMARK  status: ('A' for Active; 'I' for Inactive)
ROOT
HETATM    1  C1  UNL     1      -3.983  -0.685   0.019  1.00  0.00     0.000 A 
HETATM    2  C2  UNL     1      -4.112   0.647  -0.058  1.00  0.00     0.000 A 
HETATM    3  C3  UNL     1      -3.017   1.421  -0.052  1.00  0.00     0.003 A 
HETATM    4  C4  UNL     1      -1.790   0.873   0.029  1.00  0.00     0.044 A 
HETATM    5  C5  UNL     1      -1.653  -0.464   0.103  1.00  0.00     0.042 A 
HETATM    6  C6  UNL     1      -2.761  -1.233   0.100  1.00  0.00     0.003 A 
HETATM    7  C7  UNL     1      -0.423  -1.042   0.186  1.00  0.00     0.193 A 
HETATM    8  C8  UNL     1       0.685  -0.249   0.177  1.00  0.00     0.038 A 
HETATM    9  C9  UNL     1       0.531   1.087   0.125  1.00  0.00     0.122 A 
HETATM   10  C10 UNL     1      -0.694   1.674   0.043  1.00  0.00     0.213 A 
HETATM   11  O1  UNL     1      -0.753   2.885  -0.004  1.00  0.00    -0.285 OA
HETATM   12  N1  UNL     1       1.591   1.916   0.180  1.00  0.00    -0.209 NA
HETATM   13  C11 UNL     1       2.905   1.591   0.166  1.00  0.00     0.256 C 
HETATM   14  C12 UNL     1       3.180   0.147  -0.179  1.00  0.00     0.095 C 
HETATM   15  C13 UNL     1       2.093  -0.831   0.310  1.00  0.00     0.036 C 
HETATM   16  C14 UNL     1       2.347  -2.166  -0.420  1.00  0.00     0.005 C 
HETATM   17  O2  UNL     1       3.759   2.428   0.327  1.00  0.00    -0.270 OA
HETATM   18  O3  UNL     1      -0.326  -2.245   0.279  1.00  0.00    -0.287 OA
ENDROOT
TORSDOF 0
