REMARK  17 active torsions:
REMARK  status: ('A' for Active; 'I' for Inactive)
REMARK    1  A    between atoms: C4_4  and  O3_9 
REMARK    2  A    between atoms: C5_6  and  C6_7 
REMARK    3  A    between atoms: O3_9  and  C7_10 
REMARK    4  A    between atoms: C7_10  and  C8_11 
REMARK    5  A    between atoms: C11_14  and  O14_62 
REMARK    6  A    between atoms: C12_15  and  O5_17 
REMARK    7  A    between atoms: O5_17  and  C13_18 
REMARK    8  A    between atoms: C13_18  and  C14_19 
REMARK    9  A    between atoms: C13_18  and  C46_58 
REMARK   10  A    between atoms: C14_19  and  C15_20 
REMARK   11  A    between atoms: C15_20  and  C16_21 
REMARK   12  A    between atoms: C16_21  and  C18_23 
REMARK   13  A    between atoms: C32_38  and  O7_41 
REMARK   14  A    between atoms: O7_41  and  C35_42 
REMARK   15  A    between atoms: C36_44  and  C40_51 
REMARK   16  A    between atoms: O14_62  and  C49_63 
REMARK   17  A    between atoms: C50_65  and  C54_72 
ROOT
HETATM    1  C13 UNL     1       3.108   3.801   0.834  1.00  0.00     0.146 C 
ENDROOT
BRANCH   1   2
HETATM    2  O5  UNL     1       1.835   3.196   0.933  1.00  0.00    -0.329 OA
BRANCH   2   3
HETATM    3  C12 UNL     1       0.741   4.083   1.122  1.00  0.00     0.267 C 
HETATM    4  C11 UNL     1       0.058   4.445  -0.186  1.00  0.00     0.207 C 
HETATM    5  C10 UNL     1      -0.734   3.265  -0.719  1.00  0.00     0.217 C 
HETATM    6  C9  UNL     1      -1.623   2.684   0.361  1.00  0.00     0.214 C 
HETATM    7  O20 UNL     1       0.143   2.281  -1.194  1.00  0.00    -0.218 OA
HETATM    8  C8  UNL     1      -0.920   2.442   1.693  1.00  0.00     0.180 C 
HETATM    9  O21 UNL     1      -2.203   1.498  -0.133  1.00  0.00    -0.218 OA
HETATM   10  O4  UNL     1      -0.142   3.543   2.085  1.00  0.00    -0.326 OA
BRANCH   4  11
HETATM   11  O14 UNL     1      -0.862   5.493  -0.038  1.00  0.00    -0.324 OA
BRANCH  11  12
HETATM   12  C49 UNL     1      -0.321   6.778   0.162  1.00  0.00     0.270 C 
HETATM   13  O15 UNL     1      -0.635   7.174   1.479  1.00  0.00    -0.326 OA
HETATM   14  C50 UNL     1      -1.984   7.476   1.733  1.00  0.00     0.184 C 
HETATM   15  C51 UNL     1      -2.563   8.469   0.733  1.00  0.00     0.215 C 
HETATM   16  C52 UNL     1      -2.292   8.098  -0.713  1.00  0.00     0.220 C 
HETATM   17  O18 UNL     1      -1.978   9.729   0.973  1.00  0.00    -0.218 OA
HETATM   18  C53 UNL     1      -0.828   7.751  -0.879  1.00  0.00     0.241 C 
HETATM   19  O17 UNL     1      -3.096   7.010  -1.098  1.00  0.00    -0.218 OA
HETATM   20  O16 UNL     1      -0.068   8.938  -0.804  1.00  0.00    -0.215 OA
BRANCH  14  21
HETATM   21  C54 UNL     1      -2.836   6.234   1.971  1.00  0.00     0.214 C 
HETATM   22  O19 UNL     1      -4.045   6.607   2.602  1.00  0.00    -0.218 OA
ENDBRANCH  14  21
ENDBRANCH  11  12
ENDBRANCH   4  11
BRANCH   8  23
HETATM   23  C7  UNL     1      -0.150   1.132   1.814  1.00  0.00     0.177 C 
BRANCH  23  24
HETATM   24  O3  UNL     1       0.435   1.042   3.089  1.00  0.00    -0.326 OA
BRANCH  24  25
HETATM   25  C4  UNL     1       1.370  -0.008   3.212  1.00  0.00     0.270 C 
HETATM   26  C3  UNL     1       2.140   0.223   4.486  1.00  0.00     0.241 C 
HETATM   27  C2  UNL     1       3.097  -0.925   4.720  1.00  0.00     0.220 C 
HETATM   28  O22 UNL     1       2.872   1.419   4.363  1.00  0.00    -0.215 OA
HETATM   29  C1  UNL     1       2.338  -2.240   4.679  1.00  0.00     0.215 C 
HETATM   30  O23 UNL     1       3.708  -0.729   5.972  1.00  0.00    -0.218 OA
HETATM   31  C5  UNL     1       1.459  -2.332   3.434  1.00  0.00     0.184 C 
HETATM   32  O24 UNL     1       3.273  -3.295   4.658  1.00  0.00    -0.218 OA
HETATM   33  O1  UNL     1       0.634  -1.205   3.305  1.00  0.00    -0.326 OA
BRANCH  31  34
HETATM   34  C6  UNL     1       0.553  -3.557   3.439  1.00  0.00     0.214 C 
HETATM   35  O2  UNL     1       1.330  -4.733   3.524  1.00  0.00    -0.218 OA
ENDBRANCH  31  34
ENDBRANCH  24  25
ENDBRANCH  23  24
ENDBRANCH   8  23
ENDBRANCH   2   3
ENDBRANCH   1   2
BRANCH   1  36
HETATM   36  C14 UNL     1       4.036   2.889  -0.011  1.00  0.00     0.032 C 
BRANCH  36  37
HETATM   37  C15 UNL     1       4.450   1.514   0.544  1.00  0.00     0.003 C 
BRANCH  37  38
HETATM   38  C16 UNL     1       5.308   0.592  -0.367  1.00  0.00     0.000 C 
HETATM   39  C17 UNL     1       6.565   1.343  -0.855  1.00  0.00     0.000 C 
BRANCH  38  40
HETATM   40  C18 UNL     1       4.611  -0.111  -1.562  1.00  0.00     0.000 C 
HETATM   41  C19 UNL     1       3.288  -0.890  -1.337  1.00  0.00     0.003 C 
HETATM   42  C20 UNL     1       3.129  -1.735  -2.627  1.00  0.00     0.001 C 
HETATM   43  C26 UNL     1       2.039   0.004  -1.235  1.00  0.00     0.033 C 
HETATM   44  C45 UNL     1       3.550  -1.769  -0.084  1.00  0.00     0.000 C 
HETATM   45  C21 UNL     1       4.534  -2.369  -2.687  1.00  0.00     0.000 C 
HETATM   46  C23 UNL     1       1.847  -2.624  -2.552  1.00  0.00     0.007 C 
HETATM   47  C44 UNL     1       3.070  -0.903  -3.950  1.00  0.00     0.000 C 
HETATM   48  C22 UNL     1       5.476  -1.211  -2.249  1.00  0.00     0.000 C 
HETATM   49  C24 UNL     1       0.652  -2.132  -1.672  1.00  0.00     0.032 C 
HETATM   50  C30 UNL     1       2.000  -4.145  -2.427  1.00  0.00     0.025 C 
HETATM   51  C25 UNL     1       0.672  -0.603  -1.592  1.00  0.00     0.152 C 
HETATM   52  C27 UNL     1      -0.623  -2.730  -2.345  1.00  0.00     0.021 C 
HETATM   53  C43 UNL     1       0.610  -2.616  -0.194  1.00  0.00     0.003 C 
HETATM   54  O6  UNL     1       0.171  -0.008  -2.767  1.00  0.00    -0.224 OA
HETATM   55  C28 UNL     1      -0.551  -4.246  -2.272  1.00  0.00    -0.047 C 
HETATM   56  C34 UNL     1      -1.963  -2.162  -1.859  1.00  0.00     0.007 C 
HETATM   57  C29 UNL     1       0.658  -4.846  -2.323  1.00  0.00    -0.035 C 
HETATM   58  C31 UNL     1      -1.855  -5.021  -2.024  1.00  0.00     0.040 C 
HETATM   59  C32 UNL     1      -3.075  -4.339  -2.706  1.00  0.00     0.121 C 
HETATM   60  C41 UNL     1      -1.757  -6.473  -2.562  1.00  0.00     0.006 C 
HETATM   61  C42 UNL     1      -2.035  -5.161  -0.491  1.00  0.00     0.006 C 
HETATM   62  C33 UNL     1      -3.114  -2.804  -2.634  1.00  0.00     0.030 C 
BRANCH  59  63
HETATM   63  O7  UNL     1      -4.278  -4.833  -2.162  1.00  0.00    -0.331 OA
BRANCH  63  64
HETATM   64  C35 UNL     1      -5.049  -5.674  -2.990  1.00  0.00     0.270 C 
HETATM   65  O8  UNL     1      -5.885  -4.892  -3.816  1.00  0.00    -0.326 OA
HETATM   66  C36 UNL     1      -7.027  -4.323  -3.229  1.00  0.00     0.184 C 
HETATM   67  C37 UNL     1      -7.834  -5.316  -2.405  1.00  0.00     0.215 C 
HETATM   68  C38 UNL     1      -6.991  -6.107  -1.426  1.00  0.00     0.220 C 
HETATM   69  O11 UNL     1      -8.475  -6.226  -3.274  1.00  0.00    -0.218 OA
HETATM   70  C39 UNL     1      -5.802  -6.694  -2.160  1.00  0.00     0.241 C 
HETATM   71  O10 UNL     1      -6.553  -5.285  -0.370  1.00  0.00    -0.218 OA
HETATM   72  O9  UNL     1      -6.258  -7.716  -3.016  1.00  0.00    -0.215 OA
BRANCH  66  73
HETATM   73  C40 UNL     1      -6.726  -3.004  -2.531  1.00  0.00     0.214 C 
HETATM   74  O12 UNL     1      -7.928  -2.308  -2.264  1.00  0.00    -0.218 OA
ENDBRANCH  66  73
ENDBRANCH  63  64
ENDBRANCH  59  63
ENDBRANCH  38  40
ENDBRANCH  37  38
ENDBRANCH  36  37
ENDBRANCH   1  36
BRANCH   1  75
HETATM   75  C46 UNL     1       3.644   4.370   2.176  1.00  0.00     0.152 C 
HETATM   76  C47 UNL     1       3.640   5.911   2.163  1.00  0.00     0.035 C 
HETATM   77  O13 UNL     1       2.806   3.958   3.226  1.00  0.00    -0.224 OA
HETATM   78  C48 UNL     1       5.060   3.958   2.599  1.00  0.00     0.035 C 
ENDBRANCH   1  75
TORSDOF 17
