REMARK  5 active torsions:
REMARK  status: ('A' for Active; 'I' for Inactive)
REMARK    1  A    between atoms: C4_4  and  C7_7 
REMARK    2  A    between atoms: C11_11  and  C20_23 
REMARK    3  A    between atoms: C12_12  and  C13_13 
REMARK    4  A    between atoms: C13_13  and  C14_15 
REMARK    5  A    between atoms: C22_25  and  C26_30 
ROOT
HETATM    1  C7  UNL     1      -2.994  -2.008   0.627  1.00  0.00     0.036 C 
HETATM    2  C8  UNL     1      -3.288  -3.428   0.104  1.00  0.00     0.027 C 
HETATM    3  C9  UNL     1      -2.031  -4.263  -0.016  1.00  0.00    -0.048 C 
HETATM    4  C10 UNL     1      -0.802  -3.721  -0.034  1.00  0.00    -0.030 C 
HETATM    5  C11 UNL     1      -0.522  -2.241   0.084  1.00  0.00     0.051 C 
HETATM    6  C12 UNL     1      -1.803  -1.418  -0.150  1.00  0.00     0.074 C 
HETATM    7  C35 UNL     1      -2.245  -5.749  -0.169  1.00  0.00     0.026 C 
ENDROOT
BRANCH   5   8
HETATM    8  C20 UNL     1       0.561  -1.777  -0.872  1.00  0.00    -0.018 A 
HETATM    9  C21 UNL     1       1.511  -0.914  -0.474  1.00  0.00    -0.004 A 
HETATM   10  C22 UNL     1       2.461  -0.451  -1.307  1.00  0.00     0.033 A 
HETATM   11  C23 UNL     1       2.478  -0.875  -2.587  1.00  0.00     0.129 A 
HETATM   12  C24 UNL     1       1.524  -1.730  -2.990  1.00  0.00     0.027 A 
HETATM   13  O4  UNL     1       3.419  -0.459  -3.478  1.00  0.00    -0.190 OA
HETATM   14  C25 UNL     1       0.574  -2.172  -2.155  1.00  0.00    -0.002 A 
BRANCH  10  15
HETATM   15  C26 UNL     1       3.509   0.515  -0.775  1.00  0.00     0.183 C 
HETATM   16  C27 UNL     1       4.843  -0.185  -0.624  1.00  0.00     0.245 C 
HETATM   17  C28 UNL     1       5.904   0.791  -0.129  1.00  0.00     0.208 C 
HETATM   18  O8  UNL     1       4.641  -1.278   0.256  1.00  0.00    -0.212 OA
HETATM   19  O5  UNL     1       6.858   0.379   0.494  1.00  0.00    -0.288 OA
HETATM   20  C29 UNL     1       5.732   2.102  -0.454  1.00  0.00     0.060 A 
HETATM   21  C30 UNL     1       4.662   2.496  -1.180  1.00  0.00     0.099 A 
HETATM   22  C34 UNL     1       6.651   3.006  -0.067  1.00  0.00     0.007 A 
HETATM   23  C31 UNL     1       4.549   3.809  -1.457  1.00  0.00     0.052 A 
HETATM   24  O7  UNL     1       3.664   1.648  -1.585  1.00  0.00    -0.326 OA
HETATM   25  C32 UNL     1       5.452   4.729  -1.081  1.00  0.00     0.133 A 
HETATM   26  C33 UNL     1       6.512   4.303  -0.379  1.00  0.00     0.028 A 
HETATM   27  O6  UNL     1       5.301   6.045  -1.389  1.00  0.00    -0.190 OA
ENDBRANCH  10  15
ENDBRANCH   5   8
BRANCH   6  28
HETATM   28  C13 UNL     1      -1.629   0.108  -0.091  1.00  0.00     0.175 C 
HETATM   29  O1  UNL     1      -1.761   0.648  -1.168  1.00  0.00    -0.291 OA
BRANCH  28  30
HETATM   30  C14 UNL     1      -1.357   0.838   1.031  1.00  0.00     0.060 A 
HETATM   31  C15 UNL     1      -1.218   0.235   2.228  1.00  0.00     0.007 A 
HETATM   32  C16 UNL     1      -0.960   0.915   3.353  1.00  0.00     0.028 A 
HETATM   33  C17 UNL     1      -0.819   2.246   3.328  1.00  0.00     0.133 A 
HETATM   34  C18 UNL     1      -0.951   2.842   2.135  1.00  0.00     0.055 A 
HETATM   35  O3  UNL     1      -0.546   2.964   4.450  1.00  0.00    -0.190 OA
HETATM   36  C19 UNL     1      -1.222   2.187   0.989  1.00  0.00     0.136 A 
HETATM   37  O2  UNL     1      -1.299   2.953  -0.139  1.00  0.00    -0.190 OA
ENDBRANCH  28  30
ENDBRANCH   6  28
BRANCH   1  38
HETATM   38  C4  UNL     1      -4.214  -1.098   0.590  1.00  0.00     0.004 A 
HETATM   39  C3  UNL     1      -4.735  -0.553   1.711  1.00  0.00     0.129 A 
HETATM   40  C2  UNL     1      -5.809   0.248   1.601  1.00  0.00     0.054 A 
HETATM   41  O9  UNL     1      -4.176  -0.748   2.938  1.00  0.00    -0.190 OA
HETATM   42  C1  UNL     1      -6.404   0.527   0.430  1.00  0.00     0.133 A 
HETATM   43  C6  UNL     1      -5.870  -0.019  -0.673  1.00  0.00     0.027 A 
HETATM   44  O10 UNL     1      -7.487   1.345   0.354  1.00  0.00    -0.190 OA
HETATM   45  C5  UNL     1      -4.798  -0.818  -0.589  1.00  0.00    -0.000 A 
ENDBRANCH   1  38
TORSDOF 5
