REMARK  2 active torsions:
REMARK  status: ('A' for Active; 'I' for Inactive)
REMARK    1  A    between atoms: C6_6  and  O1_7 
REMARK    2  A    between atoms: O1_7  and  C7_8 
ROOT
HETATM    1  C1  UNL     1      -2.596  -1.216   0.723  1.00  0.00     0.180 C 
HETATM    2  C2  UNL     1      -2.661  -1.803  -0.670  1.00  0.00     0.038 C 
HETATM    3  C3  UNL     1      -1.269  -2.355  -1.047  1.00  0.00     0.038 C 
HETATM    4  C4  UNL     1      -0.090  -1.823  -0.170  1.00  0.00     0.065 C 
HETATM    5  C5  UNL     1      -0.281  -0.301   0.092  1.00  0.00     0.062 C 
HETATM    6  C6  UNL     1      -1.691   0.005   0.681  1.00  0.00     0.156 C 
HETATM    7  C9  UNL     1       0.917   0.381   0.842  1.00  0.00     0.006 C 
HETATM    8  C10 UNL     1       2.050   0.340  -0.226  1.00  0.00     0.017 C 
HETATM    9  C11 UNL     1       2.332  -1.102  -0.639  1.00  0.00     0.064 C 
HETATM   10  C12 UNL     1       1.076  -1.772  -1.158  1.00  0.00     0.315 C 
HETATM   11  N1  UNL     1       0.350  -1.003  -2.149  1.00  0.00     0.159 N 
HETATM   12  C13 UNL     1      -0.825  -1.818  -2.428  1.00  0.00     0.253 C 
HETATM   13  C14 UNL     1       0.005   0.207  -1.395  1.00  0.00     0.231 C 
HETATM   14  C15 UNL     1       1.284   1.098  -1.321  1.00  0.00     0.090 C 
HETATM   15  C16 UNL     1       1.096   2.524  -0.768  1.00  0.00     0.155 C 
HETATM   16  C17 UNL     1       1.700   2.746   0.638  1.00  0.00     0.076 C 
HETATM   17  C18 UNL     1       3.163   2.468   0.433  1.00  0.00    -0.038 C 
HETATM   18  C19 UNL     1       3.392   1.016   0.129  1.00  0.00     0.023 C 
HETATM   19  C20 UNL     1       4.137   3.385   0.511  1.00  0.00    -0.009 C 
HETATM   20  C21 UNL     1       1.221   1.667   1.668  1.00  0.00     0.012 C 
HETATM   21  O3  UNL     1       0.494   3.380  -1.373  1.00  0.00    -0.296 OA
HETATM   22  O4  UNL     1       1.455  -3.005  -1.721  1.00  0.00    -0.192 OA
HETATM   23  C22 UNL     1      -1.382  -3.895  -0.992  1.00  0.00     0.002 C 
HETATM   24  O5  UNL     1      -3.880  -0.819   1.147  1.00  0.00    -0.221 OA
ENDROOT
BRANCH   6  25
HETATM   25  O1  UNL     1      -1.650   0.469   2.005  1.00  0.00    -0.302 OA
BRANCH  25  26
HETATM   26  C7  UNL     1      -2.172   1.663   2.414  1.00  0.00     0.272 C 
HETATM   27  O2  UNL     1      -2.199   1.973   3.587  1.00  0.00    -0.264 OA
HETATM   28  C8  UNL     1      -2.676   2.615   1.344  1.00  0.00     0.106 C 
ENDBRANCH  25  26
ENDBRANCH   6  25
TORSDOF 2
