REMARK  5 active torsions:
REMARK  status: ('A' for Active; 'I' for Inactive)
REMARK    1  A    between atoms: C7_8  and  C10_13 
REMARK    2  A    between atoms: C14_17  and  C16_20 
REMARK    3  A    between atoms: C17_21  and  C29_35 
REMARK    4  A    between atoms: C18_22  and  C23_27 
REMARK    5  A    between atoms: C29_35  and  C30_36 
ROOT
HETATM    1  C16 UNL     1      -0.684   0.319  -0.863  1.00  0.00     0.069 C 
HETATM    2  C17 UNL     1       0.626   1.116  -1.004  1.00  0.00     0.007 C 
HETATM    3  C18 UNL     1       0.547   2.479  -1.729  1.00  0.00     0.050 C 
HETATM    4  C19 UNL     1      -0.643   3.323  -1.228  1.00  0.00     0.030 C 
HETATM    5  C20 UNL     1      -1.871   2.550  -0.810  1.00  0.00    -0.047 C 
HETATM    6  C21 UNL     1      -1.878   1.218  -0.640  1.00  0.00    -0.026 C 
HETATM    7  C22 UNL     1      -3.105   3.381  -0.559  1.00  0.00     0.026 C 
ENDROOT
BRANCH   1   8
HETATM    8  C14 UNL     1      -0.602  -0.786   0.196  1.00  0.00     0.036 A 
HETATM    9  C13 UNL     1      -0.298  -2.043  -0.182  1.00  0.00     0.130 A 
HETATM   10  C12 UNL     1      -0.197  -2.973   0.774  1.00  0.00     0.027 A 
HETATM   11  O10 UNL     1      -0.049  -2.403  -1.471  1.00  0.00    -0.190 OA
HETATM   12  C11 UNL     1      -0.448  -2.681   2.055  1.00  0.00     0.006 A 
HETATM   13  C10 UNL     1      -0.823  -1.449   2.462  1.00  0.00     0.050 A 
HETATM   14  C15 UNL     1      -0.819  -0.491   1.501  1.00  0.00     0.132 A 
HETATM   15  O4  UNL     1      -0.952   0.823   1.828  1.00  0.00    -0.190 OA
BRANCH  13  16
HETATM   16  C7  UNL     1      -1.131  -1.318   3.784  1.00  0.00     0.130 C 
HETATM   17  O1  UNL     1      -0.743  -2.340   4.615  1.00  0.00    -0.305 OA
HETATM   18  C5  UNL     1      -1.010  -2.247   5.945  1.00  0.00     0.105 A 
HETATM   19  C4  UNL     1      -1.729  -1.238   6.461  1.00  0.00     0.064 A 
HETATM   20  C6  UNL     1      -0.572  -3.205   6.783  1.00  0.00     0.052 A 
HETATM   21  C3  UNL     1      -1.983  -1.199   7.781  1.00  0.00     0.007 A 
HETATM   22  C9  UNL     1      -2.201  -0.276   5.627  1.00  0.00     0.225 C 
HETATM   23  C2  UNL     1      -1.528  -2.167   8.590  1.00  0.00     0.028 A 
HETATM   24  C1  UNL     1      -0.814  -3.195   8.104  1.00  0.00     0.133 A 
HETATM   25  O11 UNL     1      -0.358  -4.193   8.908  1.00  0.00    -0.190 OA
HETATM   26  C8  UNL     1      -1.924  -0.343   4.292  1.00  0.00     0.192 C 
HETATM   27  O2  UNL     1      -2.897   0.622   6.051  1.00  0.00    -0.284 OA
HETATM   28  O3  UNL     1      -2.639   0.541   3.540  1.00  0.00    -0.185 OA
ENDBRANCH  13  16
ENDBRANCH   1   8
BRANCH   2  29
HETATM   29  C29 UNL     1       1.945   0.348  -1.194  1.00  0.00     0.191 C 
HETATM   30  O9  UNL     1       2.716   0.533  -0.273  1.00  0.00    -0.287 OA
BRANCH  29  31
HETATM   31  C30 UNL     1       2.343  -0.461  -2.225  1.00  0.00     0.064 A 
HETATM   32  C31 UNL     1       3.579  -1.001  -2.126  1.00  0.00     0.007 A 
HETATM   33  C32 UNL     1       4.103  -1.804  -3.062  1.00  0.00     0.028 A 
HETATM   34  C33 UNL     1       3.406  -2.112  -4.162  1.00  0.00     0.133 A 
HETATM   35  C34 UNL     1       2.179  -1.581  -4.259  1.00  0.00     0.055 A 
HETATM   36  O8  UNL     1       3.912  -2.917  -5.135  1.00  0.00    -0.190 OA
HETATM   37  C35 UNL     1       1.629  -0.777  -3.330  1.00  0.00     0.136 A 
HETATM   38  O7  UNL     1       0.379  -0.328  -3.606  1.00  0.00    -0.190 OA
ENDBRANCH  29  31
ENDBRANCH   2  29
BRANCH   3  39
HETATM   39  C23 UNL     1       0.734   2.475  -3.246  1.00  0.00     0.007 A 
HETATM   40  C24 UNL     1       1.964   2.683  -3.755  1.00  0.00     0.000 A 
HETATM   41  C25 UNL     1       2.196   2.686  -5.075  1.00  0.00     0.027 A 
HETATM   42  C26 UNL     1       1.200   2.479  -5.948  1.00  0.00     0.133 A 
HETATM   43  C27 UNL     1      -0.021   2.262  -5.436  1.00  0.00     0.054 A 
HETATM   44  O6  UNL     1       1.413   2.455  -7.291  1.00  0.00    -0.190 OA
HETATM   45  C28 UNL     1      -0.277   2.269  -4.117  1.00  0.00     0.129 A 
HETATM   46  O5  UNL     1      -1.531   1.966  -3.695  1.00  0.00    -0.190 OA
ENDBRANCH   3  39
TORSDOF 5
