REMARK  5 active torsions:
REMARK  status: ('A' for Active; 'I' for Inactive)
REMARK    1  A    between atoms: C7_8  and  C10_13 
REMARK    2  A    between atoms: C14_17  and  C16_19 
REMARK    3  A    between atoms: C17_20  and  C29_34 
REMARK    4  A    between atoms: C18_21  and  C23_26 
REMARK    5  A    between atoms: C29_34  and  C30_35 
ROOT
HETATM    1  C16 UNL     1      -0.686   0.301  -0.847  1.00  0.00     0.067 C 
HETATM    2  C17 UNL     1       0.571   1.181  -0.979  1.00  0.00     0.007 C 
HETATM    3  C18 UNL     1       0.391   2.518  -1.735  1.00  0.00     0.050 C 
HETATM    4  C19 UNL     1      -0.820   3.309  -1.195  1.00  0.00     0.030 C 
HETATM    5  C20 UNL     1      -1.956   2.482  -0.640  1.00  0.00    -0.047 C 
HETATM    6  C21 UNL     1      -1.892   1.148  -0.497  1.00  0.00    -0.026 C 
HETATM    7  C22 UNL     1      -3.192   3.258  -0.250  1.00  0.00     0.026 C 
ENDROOT
BRANCH   1   8
HETATM    8  C14 UNL     1      -0.515  -0.817   0.180  1.00  0.00     0.011 A 
HETATM    9  C13 UNL     1      -0.180  -2.070  -0.184  1.00  0.00     0.128 A 
HETATM   10  C12 UNL     1      -0.084  -2.989   0.787  1.00  0.00     0.027 A 
HETATM   11  O9  UNL     1       0.050  -2.435  -1.473  1.00  0.00    -0.191 OA
HETATM   12  C11 UNL     1      -0.326  -2.694   2.072  1.00  0.00     0.004 A 
HETATM   13  C10 UNL     1      -0.671  -1.455   2.485  1.00  0.00     0.025 A 
HETATM   14  C15 UNL     1      -0.700  -0.547   1.488  1.00  0.00     0.000 A 
BRANCH  13  15
HETATM   15  C7  UNL     1      -0.931  -1.264   3.811  1.00  0.00     0.128 A 
HETATM   16  O1  UNL     1      -0.760  -2.358   4.622  1.00  0.00    -0.305 OA
HETATM   17  C5  UNL     1      -1.109  -2.265   5.932  1.00  0.00     0.105 A 
HETATM   18  C4  UNL     1      -1.518  -1.112   6.483  1.00  0.00     0.064 A 
HETATM   19  C6  UNL     1      -1.052  -3.357   6.717  1.00  0.00     0.052 A 
HETATM   20  C3  UNL     1      -1.837  -1.066   7.790  1.00  0.00     0.007 A 
HETATM   21  C9  UNL     1      -1.614  -0.007   5.699  1.00  0.00     0.225 A 
HETATM   22  C2  UNL     1      -1.770  -2.172   8.545  1.00  0.00     0.028 A 
HETATM   23  C1  UNL     1      -1.381  -3.344   8.019  1.00  0.00     0.133 A 
HETATM   24  O10 UNL     1      -1.319  -4.477   8.769  1.00  0.00    -0.190 OA
HETATM   25  C8  UNL     1      -1.355  -0.100   4.361  1.00  0.00     0.192 A 
HETATM   26  O2  UNL     1      -1.991   1.046   6.169  1.00  0.00    -0.284 OA
HETATM   27  O3  UNL     1      -1.673   1.029   3.666  1.00  0.00    -0.185 OA
ENDBRANCH  13  15
ENDBRANCH   1   8
BRANCH   2  28
HETATM   28  C29 UNL     1       1.947   0.515  -1.149  1.00  0.00     0.191 C 
HETATM   29  O8  UNL     1       2.695   0.793  -0.232  1.00  0.00    -0.287 OA
BRANCH  28  30
HETATM   30  C30 UNL     1       2.424  -0.283  -2.155  1.00  0.00     0.064 A 
HETATM   31  C31 UNL     1       3.703  -0.706  -2.034  1.00  0.00     0.007 A 
HETATM   32  C32 UNL     1       4.306  -1.480  -2.947  1.00  0.00     0.028 A 
HETATM   33  C33 UNL     1       3.650  -1.877  -4.044  1.00  0.00     0.133 A 
HETATM   34  C34 UNL     1       2.381  -1.464  -4.161  1.00  0.00     0.055 A 
HETATM   35  O7  UNL     1       4.236  -2.653  -4.994  1.00  0.00    -0.190 OA
HETATM   36  C35 UNL     1       1.751  -0.692  -3.256  1.00  0.00     0.136 A 
HETATM   37  O6  UNL     1       0.471  -0.361  -3.554  1.00  0.00    -0.190 OA
ENDBRANCH  28  30
ENDBRANCH   2  28
BRANCH   3  38
HETATM   38  C23 UNL     1       0.509   2.450  -3.257  1.00  0.00     0.007 A 
HETATM   39  C24 UNL     1       1.713   2.659  -3.824  1.00  0.00     0.000 A 
HETATM   40  C25 UNL     1       1.904   2.575  -5.148  1.00  0.00     0.027 A 
HETATM   41  C26 UNL     1       0.886   2.280  -5.969  1.00  0.00     0.133 A 
HETATM   42  C27 UNL     1      -0.311   2.071  -5.401  1.00  0.00     0.054 A 
HETATM   43  O5  UNL     1       1.054   2.163  -7.313  1.00  0.00    -0.190 OA
HETATM   44  C28 UNL     1      -0.525   2.160  -4.077  1.00  0.00     0.129 A 
HETATM   45  O4  UNL     1      -1.760   1.860  -3.604  1.00  0.00    -0.190 OA
ENDBRANCH   3  38
TORSDOF 5
