REMARK  5 active torsions:
REMARK  status: ('A' for Active; 'I' for Inactive)
REMARK    1  A    between atoms: C3_3  and  C7_9 
REMARK    2  A    between atoms: C7_9  and  C8_11 
REMARK    3  A    between atoms: C9_12  and  C30_38 
REMARK    4  A    between atoms: C13_16  and  C14_17 
REMARK    5  A    between atoms: C16_19  and  C20_25 
ROOT
HETATM    1  C8  UNL     1      -1.009  -0.446  -0.129  1.00  0.00     0.007 C 
HETATM    2  C9  UNL     1      -2.406  -1.069  -0.346  1.00  0.00     0.050 C 
HETATM    3  C10 UNL     1      -2.474  -2.538  -0.807  1.00  0.00     0.030 C 
HETATM    4  C11 UNL     1      -1.273  -3.381  -0.484  1.00  0.00    -0.047 C 
HETATM    5  C12 UNL     1      -0.065  -2.842  -0.270  1.00  0.00    -0.026 C 
HETATM    6  C13 UNL     1       0.222  -1.368  -0.269  1.00  0.00     0.067 C 
HETATM    7  C29 UNL     1      -1.480  -4.875  -0.521  1.00  0.00     0.026 C 
ENDROOT
BRANCH   6   8
HETATM    8  C14 UNL     1       1.114  -0.914  -1.419  1.00  0.00     0.011 A 
HETATM    9  C15 UNL     1       1.956   0.110  -1.191  1.00  0.00    -0.002 A 
HETATM   10  C16 UNL     1       2.788   0.621  -2.113  1.00  0.00     0.031 A 
HETATM   11  C17 UNL     1       2.749   0.086  -3.350  1.00  0.00     0.131 A 
HETATM   12  C18 UNL     1       1.898  -0.927  -3.584  1.00  0.00     0.054 A 
HETATM   13  O5  UNL     1       3.529   0.547  -4.365  1.00  0.00    -0.190 OA
HETATM   14  C19 UNL     1       1.088  -1.455  -2.652  1.00  0.00     0.130 A 
HETATM   15  O4  UNL     1       0.237  -2.457  -2.999  1.00  0.00    -0.190 OA
BRANCH  10  16
HETATM   16  C20 UNL     1       3.740   1.771  -1.785  1.00  0.00     0.153 C 
HETATM   17  O6  UNL     1       4.497   1.534  -0.626  1.00  0.00    -0.328 OA
HETATM   18  C21 UNL     1       3.903   1.832   0.572  1.00  0.00     0.099 A 
HETATM   19  C22 UNL     1       2.895   2.718   0.720  1.00  0.00     0.057 A 
HETATM   20  C28 UNL     1       4.286   1.148   1.668  1.00  0.00     0.052 A 
HETATM   21  C23 UNL     1       2.431   3.413  -0.353  1.00  0.00     0.178 C 
HETATM   22  C25 UNL     1       2.353   2.928   1.934  1.00  0.00     0.007 A 
HETATM   23  C24 UNL     1       3.071   3.137  -1.700  1.00  0.00     0.104 C 
HETATM   24  O7  UNL     1       1.552   4.245  -0.289  1.00  0.00    -0.291 OA
HETATM   25  C26 UNL     1       2.775   2.239   3.004  1.00  0.00     0.028 A 
HETATM   26  C27 UNL     1       3.751   1.325   2.886  1.00  0.00     0.133 A 
HETATM   27  O8  UNL     1       4.172   0.607   3.962  1.00  0.00    -0.190 OA
ENDBRANCH  10  16
ENDBRANCH   6   8
BRANCH   1  28
HETATM   28  C7  UNL     1      -0.915   0.494   1.091  1.00  0.00     0.191 C 
HETATM   29  O3  UNL     1      -0.801   1.670   0.819  1.00  0.00    -0.287 OA
BRANCH  28  30
HETATM   30  C3  UNL     1      -0.923   0.054   2.386  1.00  0.00     0.064 A 
HETATM   31  C2  UNL     1      -1.060  -1.253   2.679  1.00  0.00     0.007 A 
HETATM   32  C1  UNL     1      -1.059  -1.703   3.942  1.00  0.00     0.028 A 
HETATM   33  C6  UNL     1      -0.916  -0.857   4.971  1.00  0.00     0.133 A 
HETATM   34  C5  UNL     1      -0.785   0.444   4.673  1.00  0.00     0.055 A 
HETATM   35  O1  UNL     1      -0.907  -1.303   6.255  1.00  0.00    -0.190 OA
HETATM   36  C4  UNL     1      -0.790   0.923   3.415  1.00  0.00     0.136 A 
HETATM   37  O2  UNL     1      -0.639   2.267   3.254  1.00  0.00    -0.190 OA
ENDBRANCH  28  30
ENDBRANCH   1  28
BRANCH   2  38
HETATM   38  C30 UNL     1      -3.263  -0.221  -1.285  1.00  0.00     0.007 A 
HETATM   39  C31 UNL     1      -4.383   0.374  -0.837  1.00  0.00     0.000 A 
HETATM   40  C32 UNL     1      -5.156   1.108  -1.650  1.00  0.00     0.027 A 
HETATM   41  C33 UNL     1      -4.834   1.272  -2.943  1.00  0.00     0.133 A 
HETATM   42  C34 UNL     1      -3.711   0.679  -3.376  1.00  0.00     0.054 A 
HETATM   43  O10 UNL     1      -5.604   2.010  -3.787  1.00  0.00    -0.190 OA
HETATM   44  C35 UNL     1      -2.922  -0.066  -2.582  1.00  0.00     0.129 A 
HETATM   45  O9  UNL     1      -1.794  -0.627  -3.100  1.00  0.00    -0.190 OA
ENDBRANCH   2  38
TORSDOF 5
