REMARK  6 active torsions:
REMARK  status: ('A' for Active; 'I' for Inactive)
REMARK    1  A    between atoms: C3_3  and  C29_31 
REMARK    2  A    between atoms: C16_16  and  C25_25 
REMARK    3  A    between atoms: C29_31  and  O3_32 
REMARK    4  A    between atoms: O3_32  and  C30_33 
REMARK    5  A    between atoms: C30_33  and  C31_34 
REMARK    6  A    between atoms: C32_35  and  C33_36 
ROOT
HETATM    1  C1  UNL     1      -0.463  -2.255  -3.159  1.00  0.00     0.182 C 
HETATM    2  C2  UNL     1      -0.206  -2.661  -1.267  1.00  0.00     0.184 C 
HETATM    3  C3  UNL     1      -1.845  -2.327  -0.140  1.00  0.00     0.059 C 
HETATM    4  C4  UNL     1      -3.130  -1.827  -1.244  1.00  0.00     0.005 C 
HETATM    5  C5  UNL     1      -2.748  -0.781  -2.429  1.00  0.00     0.003 C 
HETATM    6  C6  UNL     1      -1.879  -1.472  -3.634  1.00  0.00     0.036 C 
HETATM    7  C7  UNL     1      -1.568   0.112  -2.067  1.00  0.00     0.005 C 
HETATM    8  C8  UNL     1      -0.840  -1.037  -1.420  1.00  0.00     0.004 C 
HETATM    9  C9  UNL     1      -1.873  -2.779  -1.919  1.00  0.00     0.000 C 
HETATM   10  C10 UNL     1      -3.384  -3.025  -2.061  1.00  0.00     0.000 C 
HETATM   11  C11 UNL     1       0.955  -0.437  -1.529  1.00  0.00     0.015 C 
HETATM   12  C12 UNL     1       0.972   1.150  -1.367  1.00  0.00    -0.049 C 
HETATM   13  C13 UNL     1      -0.133   1.934  -1.317  1.00  0.00    -0.035 C 
HETATM   14  C14 UNL     1      -1.583   1.534  -1.524  1.00  0.00     0.025 C 
HETATM   15  C15 UNL     1       2.292   1.931  -1.270  1.00  0.00     0.028 C 
HETATM   16  C16 UNL     1       3.207   1.492  -0.106  1.00  0.00     0.082 C 
HETATM   17  C17 UNL     1       3.444  -0.016  -0.290  1.00  0.00     0.011 C 
HETATM   18  C18 UNL     1       2.172  -0.903  -0.463  1.00  0.00     0.004 C 
HETATM   19  C19 UNL     1       4.584   2.223  -0.144  1.00  0.00     0.011 C 
HETATM   20  C20 UNL     1       4.679   3.351  -1.185  1.00  0.00     0.001 C 
HETATM   21  C21 UNL     1       4.310   2.855  -2.596  1.00  0.00     0.000 C 
HETATM   22  C22 UNL     1       2.983   2.066  -2.637  1.00  0.00     0.004 C 
HETATM   23  C23 UNL     1       1.999   2.395  -3.782  1.00  0.00     0.000 C 
HETATM   24  C24 UNL     1       4.370   3.970  -3.649  1.00  0.00     0.000 C 
HETATM   25  C26 UNL     1       1.817  -0.824  -2.740  1.00  0.00     0.004 C 
HETATM   26  C27 UNL     1      -0.550  -0.531   0.148  1.00  0.00     0.000 C 
HETATM   27  C28 UNL     1      -4.043   0.000  -2.786  1.00  0.00     0.000 C 
HETATM   28  C39 UNL     1      -2.042  -3.506   0.858  1.00  0.00     0.005 C 
HETATM   29  O6  UNL     1       0.368  -3.970  -1.211  1.00  0.00    -0.221 OA
HETATM   30  O7  UNL     1       0.396  -1.893  -4.231  1.00  0.00    -0.221 OA
ENDROOT
BRANCH   3  31
HETATM   31  C29 UNL     1      -2.696  -1.131   0.707  1.00  0.00     0.155 C 
BRANCH  31  32
HETATM   32  O3  UNL     1      -2.395  -1.001   2.047  1.00  0.00    -0.298 OA
BRANCH  32  33
HETATM   33  C30 UNL     1      -2.163   0.158   2.681  1.00  0.00     0.296 C 
HETATM   34  O5  UNL     1      -2.174   1.239   2.166  1.00  0.00    -0.259 OA
BRANCH  33  35
HETATM   35  C31 UNL     1      -1.954  -0.025   4.017  1.00  0.00     0.068 C 
HETATM   36  C32 UNL     1      -1.702   0.890   4.934  1.00  0.00     0.005 C 
BRANCH  36  37
HETATM   37  C33 UNL     1      -1.677   0.578   6.256  1.00  0.00     0.000 A 
HETATM   38  C34 UNL     1      -1.572   1.582   7.140  1.00  0.00     0.002 A 
HETATM   39  C35 UNL     1      -1.695   1.354   8.460  1.00  0.00     0.027 A 
HETATM   40  C36 UNL     1      -1.895   0.119   8.949  1.00  0.00     0.131 A 
HETATM   41  C37 UNL     1      -1.931  -0.892   8.069  1.00  0.00     0.027 A 
HETATM   42  O4  UNL     1      -2.047  -0.124  10.278  1.00  0.00    -0.190 OA
HETATM   43  C38 UNL     1      -1.817  -0.669   6.749  1.00  0.00     0.002 A 
ENDBRANCH  36  37
ENDBRANCH  33  35
ENDBRANCH  32  33
ENDBRANCH  31  32
ENDBRANCH   3  31
BRANCH  16  44
HETATM   44  C25 UNL     1       2.524   1.900   1.209  1.00  0.00     0.184 C 
HETATM   45  O1  UNL     1       2.034   2.986   1.404  1.00  0.00    -0.647 OA
HETATM   46  O2  UNL     1       2.555   0.994   2.193  1.00  0.00    -0.647 OA
ENDBRANCH  16  44
TORSDOF 6
