REMARK  3 active torsions:
REMARK  status: ('A' for Active; 'I' for Inactive)
REMARK    1  A    between atoms: C16_16  and  C27_29 
REMARK    2  A    between atoms: C21_21  and  O1_25 
REMARK    3  A    between atoms: O1_25  and  C25_26 
ROOT
HETATM    1  C1  UNL     1      -1.198  -2.175  -1.510  1.00  0.00     0.182 C 
HETATM    2  C2  UNL     1      -0.884  -2.596   0.365  1.00  0.00     0.182 C 
HETATM    3  C3  UNL     1      -2.443  -2.333   1.583  1.00  0.00     0.031 C 
HETATM    4  C4  UNL     1      -3.809  -1.821   0.489  1.00  0.00     0.003 C 
HETATM    5  C5  UNL     1      -3.483  -0.759  -0.686  1.00  0.00     0.003 C 
HETATM    6  C6  UNL     1      -2.639  -1.399  -1.902  1.00  0.00     0.036 C 
HETATM    7  C7  UNL     1      -2.315   0.154  -0.346  1.00  0.00     0.005 C 
HETATM    8  C8  UNL     1      -1.588  -0.975   0.322  1.00  0.00     0.004 C 
HETATM    9  C9  UNL     1      -2.534  -2.787  -0.190  1.00  0.00     0.000 C 
HETATM   10  C10 UNL     1      -4.011  -3.061  -0.304  1.00  0.00     0.000 C 
HETATM   11  C11 UNL     1       0.200  -0.355   0.209  1.00  0.00     0.015 C 
HETATM   12  C12 UNL     1       0.204   1.212   0.379  1.00  0.00    -0.049 C 
HETATM   13  C13 UNL     1      -0.905   1.987   0.432  1.00  0.00    -0.035 C 
HETATM   14  C14 UNL     1      -2.345   1.553   0.259  1.00  0.00     0.025 C 
HETATM   15  C15 UNL     1       1.544   1.948   0.475  1.00  0.00     0.030 C 
HETATM   16  C16 UNL     1       2.466   1.501   1.629  1.00  0.00     0.082 C 
HETATM   17  C17 UNL     1       2.670  -0.005   1.467  1.00  0.00     0.011 C 
HETATM   18  C18 UNL     1       1.353  -0.788   1.331  1.00  0.00     0.004 C 
HETATM   19  C19 UNL     1       3.849   2.197   1.538  1.00  0.00     0.013 C 
HETATM   20  C20 UNL     1       3.950   3.203   0.369  1.00  0.00     0.028 C 
HETATM   21  C21 UNL     1       3.623   2.568  -1.010  1.00  0.00     0.102 C 
HETATM   22  C22 UNL     1       2.198   1.978  -0.922  1.00  0.00     0.030 C 
HETATM   23  C23 UNL     1       1.075   2.447  -1.897  1.00  0.00     0.003 C 
HETATM   24  C24 UNL     1       4.819   1.611  -1.262  1.00  0.00     0.030 C 
HETATM   25  C28 UNL     1       1.017  -0.778  -1.021  1.00  0.00     0.004 C 
HETATM   26  C29 UNL     1      -1.274  -0.415   1.900  1.00  0.00     0.000 C 
HETATM   27  C30 UNL     1      -4.777  -0.003  -1.036  1.00  0.00     0.000 C 
HETATM   28  C31 UNL     1      -3.268  -1.265   2.507  1.00  0.00     0.003 C 
HETATM   29  C32 UNL     1      -2.614  -3.519   2.569  1.00  0.00     0.003 C 
HETATM   30  O5  UNL     1      -0.171  -3.828   0.478  1.00  0.00    -0.221 OA
HETATM   31  O6  UNL     1      -0.357  -1.839  -2.632  1.00  0.00    -0.221 OA
ENDROOT
BRANCH  21  32
HETATM   32  O1  UNL     1       3.605   3.532  -2.012  1.00  0.00    -0.307 OA
BRANCH  32  33
HETATM   33  C25 UNL     1       3.397   3.276  -3.338  1.00  0.00     0.272 C 
HETATM   34  O2  UNL     1       3.254   4.197  -4.111  1.00  0.00    -0.264 OA
HETATM   35  C26 UNL     1       3.331   1.852  -3.899  1.00  0.00     0.106 C 
ENDBRANCH  32  33
ENDBRANCH  21  32
BRANCH  16  36
HETATM   36  C27 UNL     1       1.808   1.902   2.962  1.00  0.00     0.184 C 
HETATM   37  O3  UNL     1       1.309   2.984   3.170  1.00  0.00    -0.647 OA
HETATM   38  O4  UNL     1       1.852   0.976   3.934  1.00  0.00    -0.647 OA
ENDBRANCH  16  36
TORSDOF 3
