REMARK  3 active torsions:
REMARK  status: ('A' for Active; 'I' for Inactive)
REMARK    1  A    between atoms: C2_2  and  C16_18 
REMARK    2  A    between atoms: C11_11  and  O2_16 
REMARK    3  A    between atoms: C19_21  and  O4_33 
ROOT
HETATM    1  C1  UNL     1      -2.896  -0.427   0.841  1.00  0.00     0.131 A 
HETATM    2  C2  UNL     1      -1.682  -0.373   0.259  1.00  0.00     0.027 A 
HETATM    3  C3  UNL     1      -1.188   0.838  -0.072  1.00  0.00     0.002 A 
HETATM    4  C4  UNL     1      -1.796   2.029   0.117  1.00  0.00    -0.002 A 
HETATM    5  C5  UNL     1      -3.017   1.926   0.691  1.00  0.00    -0.020 A 
HETATM    6  C6  UNL     1      -3.531   0.736   1.041  1.00  0.00     0.023 A 
HETATM    7  C7  UNL     1      -3.866   3.146   0.932  1.00  0.00     0.031 C 
HETATM    8  C8  UNL     1      -2.923   4.244   1.391  1.00  0.00     0.031 C 
HETATM    9  C9  UNL     1      -1.807   4.345   0.378  1.00  0.00    -0.018 A 
HETATM   10  C10 UNL     1      -1.277   3.247  -0.220  1.00  0.00     0.018 A 
HETATM   11  C11 UNL     1      -0.261   3.474  -1.101  1.00  0.00     0.096 A 
HETATM   12  C12 UNL     1       0.216   4.726  -1.252  1.00  0.00     0.051 A 
HETATM   13  C13 UNL     1      -0.292   5.806  -0.650  1.00  0.00     0.133 A 
HETATM   14  C14 UNL     1      -1.326   5.582   0.166  1.00  0.00     0.023 A 
HETATM   15  O1  UNL     1       0.223   7.048  -0.849  1.00  0.00    -0.190 OA
HETATM   16  O6  UNL     1      -3.465  -1.579   1.295  1.00  0.00    -0.190 OA
ENDROOT
BRANCH   2  17
HETATM   17  C16 UNL     1      -0.977  -1.501   0.002  1.00  0.00     0.024 C 
HETATM   18  C17 UNL     1      -1.601  -2.460  -0.710  1.00  0.00     0.133 C 
HETATM   19  C18 UNL     1      -0.899  -3.552  -1.029  1.00  0.00     0.051 C 
HETATM   20  O5  UNL     1      -2.865  -2.337  -1.210  1.00  0.00    -0.190 OA
HETATM   21  C19 UNL     1       0.378  -3.766  -0.673  1.00  0.00     0.096 C 
HETATM   22  C20 UNL     1       1.042  -2.764  -0.039  1.00  0.00     0.018 C 
HETATM   23  C21 UNL     1       0.327  -1.668   0.335  1.00  0.00    -0.018 C 
HETATM   24  C25 UNL     1       2.372  -2.821   0.249  1.00  0.00    -0.002 A 
HETATM   25  C22 UNL     1       1.021  -0.609   1.177  1.00  0.00     0.031 C 
HETATM   26  C23 UNL     1       1.974  -1.297   2.146  1.00  0.00     0.031 C 
HETATM   27  C24 UNL     1       2.890  -2.118   1.282  1.00  0.00    -0.020 A 
HETATM   28  C29 UNL     1       4.199  -2.153   1.585  1.00  0.00     0.023 A 
HETATM   29  C28 UNL     1       5.081  -2.872   0.876  1.00  0.00     0.131 A 
HETATM   30  C27 UNL     1       4.588  -3.551  -0.168  1.00  0.00     0.027 A 
HETATM   31  O3  UNL     1       6.405  -2.885   1.187  1.00  0.00    -0.190 OA
HETATM   32  C26 UNL     1       3.280  -3.519  -0.466  1.00  0.00     0.002 A 
BRANCH  21  33
HETATM   33  O4  UNL     1       0.928  -4.958  -1.081  1.00  0.00    -0.328 OA
HETATM   34  C30 UNL     1       0.914  -5.952  -0.080  1.00  0.00     0.181 C 
ENDBRANCH  21  33
ENDBRANCH   2  17
BRANCH  11  35
HETATM   35  O2  UNL     1       0.419   2.514  -1.813  1.00  0.00    -0.328 OA
HETATM   36  C15 UNL     1      -0.227   2.117  -3.002  1.00  0.00     0.181 C 
ENDBRANCH  11  35
TORSDOF 3
