REMARK  11 active torsions:
REMARK  status: ('A' for Active; 'I' for Inactive)
REMARK    1  A    between atoms: C1_1  and  C21_30 
REMARK    2  A    between atoms: C3_3  and  O2_6 
REMARK    3  A    between atoms: O2_6  and  C5_7 
REMARK    4  A    between atoms: C5_7  and  C6_8 
REMARK    5  A    between atoms: C7_10  and  O7_17 
REMARK    6  A    between atoms: O7_17  and  C11_18 
REMARK    7  A    between atoms: C11_18  and  C12_19 
REMARK    8  A    between atoms: C12_19  and  C13_20 
REMARK    9  A    between atoms: C13_20  and  C14_22 
REMARK   10  A    between atoms: C15_23  and  C16_24 
REMARK   11  A    between atoms: C17_25  and  C18_26 
ROOT
HETATM    1  C6  UNL     1      -0.067  -0.039   2.967  1.00  0.00     0.180 C 
HETATM    2  O3  UNL     1       1.172  -0.495   2.487  1.00  0.00    -0.326 OA
HETATM    3  C7  UNL     1       1.956   0.440   1.775  1.00  0.00     0.270 C 
HETATM    4  C8  UNL     1       2.205   1.689   2.595  1.00  0.00     0.241 C 
HETATM    5  C9  UNL     1       0.926   2.300   3.140  1.00  0.00     0.220 C 
HETATM    6  C10 UNL     1       0.081   1.225   3.801  1.00  0.00     0.215 C 
HETATM    7  O4  UNL     1       0.702   0.885   5.024  1.00  0.00    -0.218 OA
HETATM    8  O5  UNL     1       0.211   2.932   2.107  1.00  0.00    -0.218 OA
HETATM    9  O6  UNL     1       3.036   1.348   3.682  1.00  0.00    -0.215 OA
ENDROOT
BRANCH   3  10
HETATM   10  O7  UNL     1       1.330   0.765   0.557  1.00  0.00    -0.329 OA
BRANCH  10  11
HETATM   11  C11 UNL     1       1.382  -0.241  -0.424  1.00  0.00     0.149 C 
BRANCH  11  12
HETATM   12  C12 UNL     1       0.329   0.084  -1.489  1.00  0.00     0.079 C 
BRANCH  12  13
HETATM   13  C13 UNL     1       0.279  -0.931  -2.629  1.00  0.00     0.218 C 
HETATM   14  O8  UNL     1       0.014  -2.223  -2.111  1.00  0.00    -0.209 OA
BRANCH  13  15
HETATM   15  C14 UNL     1       1.521  -0.911  -3.432  1.00  0.00    -0.045 C 
HETATM   16  C15 UNL     1       2.546  -0.650  -4.028  1.00  0.00    -0.011 C 
BRANCH  16  17
HETATM   17  C16 UNL     1       3.560  -0.308  -4.599  1.00  0.00    -0.009 C 
HETATM   18  C17 UNL     1       4.563   0.094  -5.148  1.00  0.00    -0.051 C 
BRANCH  18  19
HETATM   19  C18 UNL     1       5.639   0.581  -5.726  1.00  0.00     0.045 C 
HETATM   20  C19 UNL     1       5.962   1.876  -5.580  1.00  0.00    -0.017 C 
HETATM   21  C20 UNL     1       7.171   2.519  -6.205  1.00  0.00     0.031 C 
ENDBRANCH  18  19
ENDBRANCH  16  17
ENDBRANCH  13  15
ENDBRANCH  12  13
ENDBRANCH  11  12
ENDBRANCH  10  11
ENDBRANCH   3  10
BRANCH   1  22
HETATM   22  C5  UNL     1      -1.115   0.022   1.860  1.00  0.00     0.177 C 
BRANCH  22  23
HETATM   23  O2  UNL     1      -2.418  -0.168   2.356  1.00  0.00    -0.326 OA
BRANCH  23  24
HETATM   24  C3  UNL     1      -3.340  -0.259   1.289  1.00  0.00     0.270 C 
HETATM   25  C2  UNL     1      -3.408  -1.668   0.718  1.00  0.00     0.241 C 
HETATM   26  C1  UNL     1      -4.869  -2.057   0.916  1.00  0.00     0.217 C 
HETATM   27  O9  UNL     1      -3.026  -1.639  -0.640  1.00  0.00    -0.215 OA
HETATM   28  C4  UNL     1      -5.528  -0.704   1.104  1.00  0.00     0.181 C 
HETATM   29  O11 UNL     1      -5.410  -2.724  -0.190  1.00  0.00    -0.218 OA
HETATM   30  O1  UNL     1      -4.599   0.039   1.847  1.00  0.00    -0.326 OA
BRANCH  26  31
HETATM   31  C21 UNL     1      -5.071  -2.964   2.120  1.00  0.00     0.218 C 
HETATM   32  O10 UNL     1      -6.429  -3.354   2.152  1.00  0.00    -0.218 OA
ENDBRANCH  26  31
ENDBRANCH  23  24
ENDBRANCH  22  23
ENDBRANCH   1  22
TORSDOF 11
