REMARK  7 active torsions:
REMARK  status: ('A' for Active; 'I' for Inactive)
REMARK    1  A    between atoms: C16_17  and  C19_20 
REMARK    2  A    between atoms: C19_20  and  C20_21 
REMARK    3  A    between atoms: C19_20  and  O2_27 
REMARK    4  A    between atoms: C20_21  and  C21_22 
REMARK    5  A    between atoms: C21_22  and  C22_23 
REMARK    6  A    between atoms: O2_27  and  C26_28 
REMARK    7  A    between atoms: C27_30  and  C31_37 
ROOT
HETATM    1  C1  UNL     1      -5.638   0.014  -3.327  1.00  0.00     0.182 C 
HETATM    2  C2  UNL     1      -6.404  -0.984  -2.480  1.00  0.00     0.182 C 
HETATM    3  C3  UNL     1      -5.520  -1.962  -1.675  1.00  0.00     0.031 C 
HETATM    4  C4  UNL     1      -4.053  -1.435  -1.463  1.00  0.00     0.003 C 
HETATM    5  C5  UNL     1      -3.852   0.109  -1.369  1.00  0.00     0.003 C 
HETATM    6  C6  UNL     1      -4.471   0.739  -2.650  1.00  0.00     0.036 C 
HETATM    7  C7  UNL     1      -2.336   0.554  -1.232  1.00  0.00     0.003 C 
HETATM    8  C8  UNL     1      -1.276  -0.586  -1.181  1.00  0.00     0.000 C 
HETATM    9  C9  UNL     1      -1.600  -1.477  -2.396  1.00  0.00     0.000 C 
HETATM   10  C10 UNL     1      -3.003  -2.103  -2.380  1.00  0.00     0.000 C 
HETATM   11  C11 UNL     1      -1.417  -1.421   0.122  1.00  0.00     0.000 C 
HETATM   12  C12 UNL     1       0.165   0.030  -1.317  1.00  0.00     0.002 C 
HETATM   13  C13 UNL     1       0.441   1.003  -0.134  1.00  0.00     0.033 C 
HETATM   14  C14 UNL     1      -0.541   2.167  -0.251  1.00  0.00     0.152 C 
HETATM   15  C15 UNL     1      -1.991   1.662  -0.210  1.00  0.00     0.033 C 
HETATM   16  O1  UNL     1      -0.402   3.071   0.815  1.00  0.00    -0.224 OA
HETATM   17  C16 UNL     1       1.980   1.218  -0.100  1.00  0.00     0.028 C 
HETATM   18  C17 UNL     1       2.518  -0.110  -0.706  1.00  0.00     0.002 C 
HETATM   19  C18 UNL     1       1.329  -0.969  -1.166  1.00  0.00     0.000 C 
HETATM   20  C33 UNL     1       0.428   0.710  -2.695  1.00  0.00     0.000 C 
HETATM   21  C34 UNL     1      -4.619   0.659  -0.139  1.00  0.00     0.000 C 
HETATM   22  C35 UNL     1      -5.553  -3.325  -2.428  1.00  0.00     0.003 C 
HETATM   23  C36 UNL     1      -6.177  -2.319  -0.310  1.00  0.00     0.003 C 
HETATM   24  O8  UNL     1      -7.335  -0.293  -1.678  1.00  0.00    -0.221 OA
HETATM   25  O9  UNL     1      -5.179  -0.650  -4.485  1.00  0.00    -0.221 OA
ENDROOT
BRANCH  17  26
HETATM   26  C19 UNL     1       2.694   1.579   1.243  1.00  0.00     0.096 C 
HETATM   27  C32 UNL     1       2.377   3.023   1.675  1.00  0.00     0.030 C 
BRANCH  26  28
HETATM   28  C20 UNL     1       4.236   1.451   1.135  1.00  0.00     0.032 C 
BRANCH  28  29
HETATM   29  C21 UNL     1       4.895   2.323   0.052  1.00  0.00     0.028 C 
BRANCH  29  30
HETATM   30  C22 UNL     1       6.388   2.099   0.016  1.00  0.00    -0.035 C 
HETATM   31  C23 UNL     1       7.114   1.535  -0.967  1.00  0.00    -0.048 C 
HETATM   32  C24 UNL     1       8.614   1.386  -0.833  1.00  0.00     0.026 C 
HETATM   33  C25 UNL     1       6.563   1.000  -2.268  1.00  0.00     0.026 C 
ENDBRANCH  29  30
ENDBRANCH  28  29
ENDBRANCH  26  28
BRANCH  26  34
HETATM   34  O2  UNL     1       2.188   0.670   2.182  1.00  0.00    -0.334 OA
BRANCH  34  35
HETATM   35  C26 UNL     1       2.603   0.785   3.524  1.00  0.00     0.270 C 
HETATM   36  O3  UNL     1       3.478  -0.282   3.820  1.00  0.00    -0.326 OA
HETATM   37  C27 UNL     1       2.907  -1.562   3.898  1.00  0.00     0.184 C 
HETATM   38  C28 UNL     1       1.655  -1.609   4.768  1.00  0.00     0.215 C 
HETATM   39  C29 UNL     1       0.668  -0.493   4.485  1.00  0.00     0.220 C 
HETATM   40  O6  UNL     1       2.037  -1.519   6.125  1.00  0.00    -0.218 OA
HETATM   41  C30 UNL     1       1.408   0.828   4.451  1.00  0.00     0.241 C 
HETATM   42  O5  UNL     1       0.014  -0.711   3.257  1.00  0.00    -0.218 OA
HETATM   43  O4  UNL     1       1.852   1.137   5.753  1.00  0.00    -0.215 OA
BRANCH  37  44
HETATM   44  C31 UNL     1       2.771  -2.215   2.527  1.00  0.00     0.214 C 
HETATM   45  O7  UNL     1       2.616  -3.613   2.671  1.00  0.00    -0.218 OA
ENDBRANCH  37  44
ENDBRANCH  34  35
ENDBRANCH  26  34
ENDBRANCH  17  26
TORSDOF 7
