REMARK  6 active torsions:
REMARK  status: ('A' for Active; 'I' for Inactive)
REMARK    1  A    between atoms: C2_2  and  O4_34 
REMARK    2  A    between atoms: C15_16  and  C23_25 
REMARK    3  A    between atoms: O4_34  and  C31_35 
REMARK    4  A    between atoms: C35_40  and  O6_41 
REMARK    5  A    between atoms: O6_41  and  C36_42 
REMARK    6  A    between atoms: C37_44  and  C41_51 
ROOT
HETATM    1  C1  UNL     1      -1.965  -0.003  -2.836  1.00  0.00     0.030 C 
HETATM    2  C2  UNL     1      -2.791  -1.061  -2.110  1.00  0.00     0.118 C 
HETATM    3  C3  UNL     1      -1.950  -2.367  -2.117  1.00  0.00     0.025 C 
HETATM    4  C4  UNL     1      -0.400  -2.126  -1.935  1.00  0.00     0.002 C 
HETATM    5  C5  UNL     1       0.021  -0.770  -1.291  1.00  0.00     0.000 C 
HETATM    6  C6  UNL     1      -0.771   0.405  -1.958  1.00  0.00     0.003 C 
HETATM    7  C7  UNL     1       1.546  -0.452  -1.487  1.00  0.00     0.002 C 
HETATM    8  C8  UNL     1       2.542  -1.639  -1.659  1.00  0.00     0.000 C 
HETATM    9  C9  UNL     1       2.010  -2.534  -2.812  1.00  0.00     0.000 C 
HETATM   10  C10 UNL     1       0.513  -2.364  -3.159  1.00  0.00     0.000 C 
HETATM   11  C11 UNL     1       3.970  -1.039  -1.979  1.00  0.00     0.002 C 
HETATM   12  C12 UNL     1       4.383  -0.024  -0.883  1.00  0.00     0.030 C 
HETATM   13  C13 UNL     1       3.445   1.175  -0.867  1.00  0.00     0.118 C 
HETATM   14  C14 UNL     1       2.043   0.657  -0.534  1.00  0.00     0.030 C 
HETATM   15  O1  UNL     1       3.809   2.065   0.143  1.00  0.00    -0.335 OA
HETATM   16  C15 UNL     1       4.977   2.823  -0.078  1.00  0.00     0.213 C 
HETATM   17  O2  UNL     1       5.593   2.477  -1.298  1.00  0.00    -0.338 OA
HETATM   18  C16 UNL     1       6.569   1.518  -1.062  1.00  0.00     0.096 C 
HETATM   19  C17 UNL     1       5.929   0.119  -0.894  1.00  0.00     0.027 C 
HETATM   20  C18 UNL     1       6.401  -1.042  -1.802  1.00  0.00     0.002 C 
HETATM   21  C19 UNL     1       5.188  -1.991  -1.883  1.00  0.00     0.000 C 
HETATM   22  C20 UNL     1       7.212   2.023   0.237  1.00  0.00     0.033 C 
HETATM   23  C21 UNL     1       5.985   2.485   1.024  1.00  0.00     0.061 C 
HETATM   24  C22 UNL     1       7.590   1.601  -2.200  1.00  0.00     0.030 C 
HETATM   25  C26 UNL     1       4.056  -0.357  -3.377  1.00  0.00     0.000 C 
HETATM   26  C27 UNL     1       2.587  -2.535  -0.392  1.00  0.00     0.000 C 
HETATM   27  C28 UNL     1      -0.248  -0.829   0.238  1.00  0.00     0.000 C 
HETATM   28  C29 UNL     1      -2.270  -3.100  -3.451  1.00  0.00     0.002 C 
HETATM   29  C30 UNL     1      -2.481  -3.350  -1.037  1.00  0.00     0.002 C 
ENDROOT
BRANCH   2  30
HETATM   30  O4  UNL     1      -3.010  -0.532  -0.834  1.00  0.00    -0.332 OA
BRANCH  30  31
HETATM   31  C31 UNL     1      -4.282  -0.631  -0.242  1.00  0.00     0.267 C 
HETATM   32  O5  UNL     1      -5.211   0.130  -0.981  1.00  0.00    -0.326 OA
HETATM   33  C32 UNL     1      -4.995   1.519  -0.967  1.00  0.00     0.181 C 
HETATM   34  C33 UNL     1      -4.969   2.085   0.439  1.00  0.00     0.214 C 
HETATM   35  C34 UNL     1      -3.948   1.359   1.289  1.00  0.00     0.217 C 
HETATM   36  O13 UNL     1      -6.245   1.976   1.024  1.00  0.00    -0.218 OA
HETATM   37  C35 UNL     1      -4.129  -0.152   1.197  1.00  0.00     0.207 C 
HETATM   38  O12 UNL     1      -2.658   1.730   0.862  1.00  0.00    -0.218 OA
BRANCH  37  39
HETATM   39  O6  UNL     1      -5.224  -0.501   1.997  1.00  0.00    -0.324 OA
BRANCH  39  40
HETATM   40  C36 UNL     1      -5.133  -1.750   2.644  1.00  0.00     0.270 C 
HETATM   41  O7  UNL     1      -6.446  -2.040   3.079  1.00  0.00    -0.326 OA
HETATM   42  C37 UNL     1      -6.932  -1.253   4.137  1.00  0.00     0.184 C 
HETATM   43  C38 UNL     1      -6.000  -1.254   5.342  1.00  0.00     0.215 C 
HETATM   44  C39 UNL     1      -4.549  -0.980   4.989  1.00  0.00     0.220 C 
HETATM   45  O10 UNL     1      -6.067  -2.526   5.946  1.00  0.00    -0.218 OA
HETATM   46  C40 UNL     1      -4.146  -1.821   3.794  1.00  0.00     0.241 C 
HETATM   47  O9  UNL     1      -4.345   0.385   4.715  1.00  0.00    -0.218 OA
HETATM   48  O8  UNL     1      -4.050  -3.167   4.208  1.00  0.00    -0.215 OA
BRANCH  42  49
HETATM   49  C41 UNL     1      -7.395   0.131   3.699  1.00  0.00     0.214 C 
HETATM   50  O11 UNL     1      -8.245   0.679   4.688  1.00  0.00    -0.218 OA
ENDBRANCH  42  49
ENDBRANCH  39  40
ENDBRANCH  37  39
ENDBRANCH  30  31
ENDBRANCH   2  30
BRANCH  16  51
HETATM   51  C23 UNL     1       4.568   4.303  -0.125  1.00  0.00     0.173 C 
HETATM   52  C24 UNL     1       5.751   5.253  -0.343  1.00  0.00     0.038 C 
HETATM   53  C25 UNL     1       3.784   4.742   1.120  1.00  0.00     0.038 C 
HETATM   54  O3  UNL     1       3.706   4.470  -1.225  1.00  0.00    -0.221 OA
ENDBRANCH  16  51
TORSDOF 6
