REMARK  1 active torsions:
REMARK  status: ('A' for Active; 'I' for Inactive)
REMARK    1  A    between atoms: C8_9  and  C10_11 
ROOT
HETATM    1  C1  UNL     1       0.025  -4.215  -1.831  1.00  0.00     0.133 A 
HETATM    2  C2  UNL     1       1.136  -3.776  -1.103  1.00  0.00     0.028 A 
HETATM    3  C3  UNL     1       1.138  -2.523  -0.495  1.00  0.00     0.004 A 
HETATM    4  C4  UNL     1       0.017  -1.689  -0.609  1.00  0.00     0.022 A 
HETATM    5  C5  UNL     1      -1.093  -2.069  -1.376  1.00  0.00     0.097 A 
HETATM    6  C6  UNL     1      -1.067  -3.351  -1.944  1.00  0.00     0.052 A 
HETATM    7  O1  UNL     1      -2.196  -1.270  -1.498  1.00  0.00    -0.326 OA
HETATM    8  C7  UNL     1      -2.414  -0.356  -0.441  1.00  0.00     0.175 C 
HETATM    9  C8  UNL     1      -1.159   0.326   0.054  1.00  0.00     0.008 C 
HETATM   10  C9  UNL     1       0.004  -0.359  -0.000  1.00  0.00     0.000 C 
HETATM   11  O3  UNL     1       0.006  -5.442  -2.416  1.00  0.00    -0.190 OA
ENDROOT
BRANCH   9  12
HETATM   12  C10 UNL     1      -1.211   1.665   0.684  1.00  0.00    -0.002 A 
HETATM   13  C11 UNL     1      -2.347   2.076   1.397  1.00  0.00     0.002 A 
HETATM   14  C12 UNL     1      -2.380   3.316   2.039  1.00  0.00     0.027 A 
HETATM   15  C13 UNL     1      -1.292   4.194   1.987  1.00  0.00     0.131 A 
HETATM   16  C14 UNL     1      -0.175   3.795   1.249  1.00  0.00     0.027 A 
HETATM   17  O2  UNL     1      -1.315   5.397   2.619  1.00  0.00    -0.190 OA
HETATM   18  C15 UNL     1      -0.131   2.555   0.607  1.00  0.00     0.002 A 
ENDBRANCH   9  12
TORSDOF 1
