REMARK  8 active torsions:
REMARK  status: ('A' for Active; 'I' for Inactive)
REMARK    1  A    between atoms: C4_4  and  C7_8 
REMARK    2  A    between atoms: C7_8  and  O2_9 
REMARK    3  A    between atoms: O2_9  and  C8_10 
REMARK    4  A    between atoms: C8_10  and  C9_11 
REMARK    5  A    between atoms: C11_13  and  C13_17 
REMARK    6  A    between atoms: C13_17  and  O5_18 
REMARK    7  A    between atoms: O5_18  and  C14_19 
REMARK    8  A    between atoms: C14_19  and  C15_20 
ROOT
HETATM    1  C9  UNL     1       1.369   3.287   0.299  1.00  0.00     0.181 C 
HETATM    2  C10 UNL     1       0.798   3.132   1.699  1.00  0.00     0.217 C 
HETATM    3  C11 UNL     1      -0.700   3.081   1.468  1.00  0.00     0.239 C 
HETATM    4  C12 UNL     1      -0.795   4.066   0.324  1.00  0.00     0.302 C 
HETATM    5  O3  UNL     1       0.395   3.982  -0.436  1.00  0.00    -0.324 OA
HETATM    6  O4  UNL     1      -0.738   5.408   0.775  1.00  0.00    -0.187 OA
HETATM    7  O10 UNL     1      -1.327   3.529   2.639  1.00  0.00    -0.215 OA
HETATM    8  O11 UNL     1       1.079   4.309   2.425  1.00  0.00    -0.218 OA
ENDROOT
BRANCH   3   9
HETATM    9  C13 UNL     1      -1.248   1.701   1.115  1.00  0.00     0.190 C 
BRANCH   9  10
HETATM   10  O5  UNL     1      -2.545   1.553   1.631  1.00  0.00    -0.295 OA
BRANCH  10  11
HETATM   11  C14 UNL     1      -3.139   0.322   1.529  1.00  0.00     0.296 C 
HETATM   12  O9  UNL     1      -4.163   0.096   2.164  1.00  0.00    -0.259 OA
BRANCH  11  13
HETATM   13  C15 UNL     1      -2.637  -0.806   0.661  1.00  0.00     0.067 A 
HETATM   14  C16 UNL     1      -2.503  -0.616  -0.716  1.00  0.00     0.035 A 
HETATM   15  C17 UNL     1      -2.003  -1.634  -1.531  1.00  0.00     0.158 A 
HETATM   16  C18 UNL     1      -1.655  -2.857  -0.950  1.00  0.00     0.181 A 
HETATM   17  O8  UNL     1      -1.820  -1.459  -2.865  1.00  0.00    -0.188 OA
HETATM   18  C19 UNL     1      -1.824  -3.077   0.421  1.00  0.00     0.158 A 
HETATM   19  O7  UNL     1      -1.087  -3.833  -1.703  1.00  0.00    -0.186 OA
HETATM   20  C20 UNL     1      -2.302  -2.038   1.225  1.00  0.00     0.035 A 
HETATM   21  O6  UNL     1      -1.365  -4.237   0.958  1.00  0.00    -0.188 OA
ENDBRANCH  11  13
ENDBRANCH  10  11
ENDBRANCH   9  10
ENDBRANCH   3   9
BRANCH   1  22
HETATM   22  C8  UNL     1       1.677   1.942  -0.358  1.00  0.00     0.184 C 
BRANCH  22  23
HETATM   23  O2  UNL     1       2.559   2.073  -1.438  1.00  0.00    -0.296 OA
BRANCH  23  24
HETATM   24  C7  UNL     1       3.205   0.976  -1.965  1.00  0.00     0.296 C 
HETATM   25  O12 UNL     1       4.021   1.198  -2.860  1.00  0.00    -0.259 OA
BRANCH  24  26
HETATM   26  C4  UNL     1       3.069  -0.476  -1.598  1.00  0.00     0.067 A 
HETATM   27  C3  UNL     1       4.083  -1.379  -1.955  1.00  0.00     0.035 A 
HETATM   28  C2  UNL     1       4.028  -2.743  -1.635  1.00  0.00     0.158 A 
HETATM   29  C1  UNL     1       2.931  -3.229  -0.914  1.00  0.00     0.181 A 
HETATM   30  O13 UNL     1       5.040  -3.576  -2.001  1.00  0.00    -0.188 OA
HETATM   31  C6  UNL     1       1.921  -2.349  -0.520  1.00  0.00     0.158 A 
HETATM   32  O14 UNL     1       2.836  -4.530  -0.533  1.00  0.00    -0.186 OA
HETATM   33  C5  UNL     1       1.975  -1.013  -0.907  1.00  0.00     0.035 A 
HETATM   34  O1  UNL     1       0.861  -2.810   0.189  1.00  0.00    -0.188 OA
ENDBRANCH  24  26
ENDBRANCH  23  24
ENDBRANCH  22  23
ENDBRANCH   1  22
TORSDOF 8
