REMARK  4 active torsions:
REMARK  status: ('A' for Active; 'I' for Inactive)
REMARK    1  A    between atoms: C10_12  and  C11_13 
REMARK    2  A    between atoms: C11_13  and  C12_14 
REMARK    3  A    between atoms: C11_13  and  C15_18 
REMARK    4  A    between atoms: C15_18  and  C16_19 
ROOT
HETATM    1  C1  UNL     1      -2.221  -0.082  -0.966  1.00  0.00     0.000 A 
HETATM    2  C2  UNL     1      -2.355  -1.390  -0.497  1.00  0.00     0.002 A 
HETATM    3  C3  UNL     1      -1.285  -2.285  -0.594  1.00  0.00     0.019 A 
HETATM    4  C4  UNL     1      -0.084  -1.860  -1.157  1.00  0.00     0.087 A 
HETATM    5  C5  UNL     1       0.049  -0.553  -1.645  1.00  0.00     0.055 A 
HETATM    6  C6  UNL     1      -1.020   0.345  -1.540  1.00  0.00     0.004 A 
HETATM    7  C7  UNL     1       1.350  -0.153  -2.244  1.00  0.00     0.210 C 
HETATM    8  C8  UNL     1       2.524  -0.959  -1.896  1.00  0.00     0.245 A 
HETATM    9  C9  UNL     1       2.188  -2.377  -1.738  1.00  0.00     0.290 C 
HETATM   10  N1  UNL     1       0.960  -2.697  -1.263  1.00  0.00    -0.209 NA
HETATM   11  O1  UNL     1       3.006  -3.252  -1.897  1.00  0.00    -0.267 OA
HETATM   12  C10 UNL     1       3.632  -0.439  -1.140  1.00  0.00     0.160 A 
HETATM   13  O3  UNL     1       3.951  -0.560  -2.506  1.00  0.00    -0.340 OA
HETATM   14  O4  UNL     1       1.435   0.848  -2.946  1.00  0.00    -0.288 OA
ENDROOT
BRANCH  12  15
HETATM   15  C11 UNL     1       3.675   1.019  -0.664  1.00  0.00     0.063 C 
BRANCH  15  16
HETATM   16  C12 UNL     1       5.067   1.449  -0.136  1.00  0.00     0.130 C 
HETATM   17  C13 UNL     1       6.167   1.180  -1.170  1.00  0.00     0.033 C 
HETATM   18  O2  UNL     1       5.048   2.841   0.068  1.00  0.00    -0.226 OA
HETATM   19  C14 UNL     1       5.447   0.806   1.202  1.00  0.00     0.033 C 
ENDBRANCH  15  16
BRANCH  15  20
HETATM   20  C15 UNL     1       2.524   1.363   0.317  1.00  0.00     0.030 C 
BRANCH  20  21
HETATM   21  C16 UNL     1       2.118   0.253   1.255  1.00  0.00    -0.034 C 
HETATM   22  C17 UNL     1       0.955   0.184   1.928  1.00  0.00    -0.048 C 
HETATM   23  C18 UNL     1       0.632  -0.993   2.817  1.00  0.00     0.026 C 
HETATM   24  C19 UNL     1      -0.117   1.248   1.885  1.00  0.00     0.026 C 
ENDBRANCH  20  21
ENDBRANCH  15  20
ENDBRANCH  12  15
TORSDOF 4
