REMARK  4 active torsions:
REMARK  status: ('A' for Active; 'I' for Inactive)
REMARK    1  A    between atoms: C6_7  and  C19_23 
REMARK    2  A    between atoms: C6_7  and  C24_28 
REMARK    3  A    between atoms: C19_23  and  C20_24 
REMARK    4  A    between atoms: C24_28  and  C25_29 
ROOT
HETATM    1  C1  UNL     1      -1.700  -1.002   0.195  1.00  0.00     0.117 C 
HETATM    2  C2  UNL     1      -1.609  -2.507   0.289  1.00  0.00     0.001 C 
HETATM    3  C3  UNL     1      -0.447  -3.170   0.175  1.00  0.00     0.003 C 
HETATM    4  C4  UNL     1       0.767  -2.384   0.010  1.00  0.00     0.057 C 
HETATM    5  C5  UNL     1       0.704  -1.033   0.049  1.00  0.00     0.079 C 
HETATM    6  O1  UNL     1      -0.462  -0.335   0.203  1.00  0.00    -0.335 OA
HETATM    7  C6  UNL     1       1.978  -0.212  -0.182  1.00  0.00     0.067 C 
HETATM    8  C7  UNL     1       3.113  -0.923   0.558  1.00  0.00    -0.011 A 
HETATM    9  C8  UNL     1       3.226  -2.346   0.495  1.00  0.00     0.061 A 
HETATM   10  C9  UNL     1       2.074  -3.087  -0.091  1.00  0.00     0.199 C 
HETATM   11  O2  UNL     1       2.132  -4.228  -0.537  1.00  0.00    -0.286 OA
HETATM   12  C10 UNL     1       4.311  -3.049   0.999  1.00  0.00     0.136 A 
HETATM   13  C11 UNL     1       5.382  -2.319   1.618  1.00  0.00     0.051 A 
HETATM   14  C12 UNL     1       5.258  -0.923   1.741  1.00  0.00     0.003 A 
HETATM   15  C13 UNL     1       4.125  -0.248   1.198  1.00  0.00    -0.004 A 
HETATM   16  C14 UNL     1       6.280  -0.152   2.372  1.00  0.00    -0.004 A 
HETATM   17  C15 UNL     1       7.415  -0.751   2.862  1.00  0.00    -0.020 A 
HETATM   18  C16 UNL     1       7.552  -2.154   2.692  1.00  0.00     0.023 A 
HETATM   19  C17 UNL     1       6.585  -2.940   2.102  1.00  0.00     0.133 A 
HETATM   20  O3  UNL     1       6.847  -4.266   1.966  1.00  0.00    -0.190 OA
HETATM   21  C18 UNL     1       8.499   0.074   3.511  1.00  0.00     0.031 C 
HETATM   22  O4  UNL     1       4.304  -4.409   0.976  1.00  0.00    -0.190 OA
HETATM   23  C29 UNL     1      -2.408  -0.644  -1.118  1.00  0.00     0.035 C 
HETATM   24  C30 UNL     1      -2.511  -0.477   1.386  1.00  0.00     0.035 C 
ENDROOT
BRANCH   7  25
HETATM   25  C19 UNL     1       1.758   1.256   0.281  1.00  0.00     0.036 C 
BRANCH  25  26
HETATM   26  C20 UNL     1       2.741   2.298  -0.202  1.00  0.00    -0.034 C 
HETATM   27  C21 UNL     1       2.609   3.625  -0.025  1.00  0.00    -0.048 C 
HETATM   28  C22 UNL     1       3.629   4.596  -0.571  1.00  0.00     0.026 C 
HETATM   29  C23 UNL     1       1.452   4.268   0.703  1.00  0.00     0.026 C 
ENDBRANCH  25  26
ENDBRANCH   7  25
BRANCH   7  30
HETATM   30  C24 UNL     1       2.318  -0.283  -1.698  1.00  0.00     0.036 C 
BRANCH  30  31
HETATM   31  C25 UNL     1       1.462   0.594  -2.577  1.00  0.00    -0.034 C 
HETATM   32  C26 UNL     1       1.869   1.293  -3.653  1.00  0.00    -0.048 C 
HETATM   33  C27 UNL     1       0.910   2.175  -4.419  1.00  0.00     0.026 C 
HETATM   34  C28 UNL     1       3.275   1.285  -4.206  1.00  0.00     0.026 C 
ENDBRANCH  30  31
ENDBRANCH   7  30
TORSDOF 4
