REMARK  6 active torsions:
REMARK  status: ('A' for Active; 'I' for Inactive)
REMARK    1  A    between atoms: C2_2  and  C26_29 
REMARK    2  A    between atoms: C6_6  and  C7_7 
REMARK    3  A    between atoms: C7_7  and  C8_8 
REMARK    4  A    between atoms: C19_20  and  C20_21 
REMARK    5  A    between atoms: C20_21  and  C21_22 
REMARK    6  A    between atoms: C26_29  and  C27_30 
ROOT
HETATM    1  C1  UNL     1       0.137  -0.964  -0.605  1.00  0.00     0.125 A 
HETATM    2  C2  UNL     1       0.387  -2.280  -0.191  1.00  0.00     0.033 A 
HETATM    3  C3  UNL     1       1.595  -2.624   0.433  1.00  0.00     0.132 A 
HETATM    4  C4  UNL     1       2.582  -1.631   0.581  1.00  0.00     0.060 A 
HETATM    5  C5  UNL     1       2.362  -0.320   0.141  1.00  0.00    -0.014 A 
HETATM    6  C6  UNL     1       1.109   0.027  -0.394  1.00  0.00     0.004 A 
HETATM    7  C12 UNL     1       3.434   0.727   0.304  1.00  0.00     0.052 C 
HETATM    8  C13 UNL     1       4.844   0.241   0.524  1.00  0.00    -0.017 A 
HETATM    9  C14 UNL     1       5.052  -1.067   0.980  1.00  0.00     0.060 A 
HETATM   10  C15 UNL     1       3.888  -1.964   1.217  1.00  0.00     0.199 C 
HETATM   11  O1  UNL     1       4.000  -2.950   1.937  1.00  0.00    -0.286 OA
HETATM   12  C16 UNL     1       6.349  -1.566   1.188  1.00  0.00     0.133 A 
HETATM   13  C17 UNL     1       7.418  -0.706   0.941  1.00  0.00     0.023 A 
HETATM   14  C18 UNL     1       7.244   0.616   0.519  1.00  0.00    -0.024 A 
HETATM   15  C19 UNL     1       5.940   1.104   0.319  1.00  0.00    -0.025 A 
HETATM   16  C25 UNL     1       8.475   1.460   0.277  1.00  0.00     0.031 C 
HETATM   17  O2  UNL     1       6.604  -2.844   1.578  1.00  0.00    -0.190 OA
HETATM   18  O3  UNL     1       1.788  -3.916   0.822  1.00  0.00    -0.190 OA
HETATM   19  O4  UNL     1      -1.054  -0.638  -1.179  1.00  0.00    -0.191 OA
ENDROOT
BRANCH   2  20
HETATM   20  C26 UNL     1      -0.681  -3.346  -0.366  1.00  0.00     0.056 C 
BRANCH  20  21
HETATM   21  C27 UNL     1      -0.191  -4.532  -1.159  1.00  0.00    -0.030 C 
HETATM   22  C28 UNL     1      -0.571  -5.811  -0.992  1.00  0.00    -0.048 C 
HETATM   23  C29 UNL     1       0.024  -6.921  -1.829  1.00  0.00     0.026 C 
HETATM   24  C30 UNL     1      -1.592  -6.275   0.020  1.00  0.00     0.026 C 
ENDBRANCH  20  21
ENDBRANCH   2  20
BRANCH   6  25
HETATM   25  C7  UNL     1       0.751   1.464  -0.737  1.00  0.00     0.053 C 
BRANCH  25  26
HETATM   26  C8  UNL     1      -0.470   1.921   0.023  1.00  0.00    -0.030 C 
HETATM   27  C9  UNL     1      -1.284   2.930  -0.331  1.00  0.00    -0.048 C 
HETATM   28  C10 UNL     1      -2.496   3.285   0.500  1.00  0.00     0.026 C 
HETATM   29  C11 UNL     1      -1.073   3.803  -1.544  1.00  0.00     0.026 C 
ENDBRANCH  25  26
ENDBRANCH   6  25
BRANCH  15  30
HETATM   30  C20 UNL     1       5.718   2.543  -0.127  1.00  0.00     0.051 C 
BRANCH  30  31
HETATM   31  C21 UNL     1       4.843   3.301   0.841  1.00  0.00    -0.030 C 
HETATM   32  C22 UNL     1       3.866   4.177   0.542  1.00  0.00    -0.048 C 
HETATM   33  C23 UNL     1       3.035   4.812   1.633  1.00  0.00     0.026 C 
HETATM   34  C24 UNL     1       3.487   4.607  -0.855  1.00  0.00     0.026 C 
ENDBRANCH  30  31
ENDBRANCH  15  30
TORSDOF 6
