REMARK  6 active torsions:
REMARK  status: ('A' for Active; 'I' for Inactive)
REMARK    1  A    between atoms: C6_6  and  C7_7 
REMARK    2  A    between atoms: C7_7  and  C8_8 
REMARK    3  A    between atoms: C17_18  and  C26_27 
REMARK    4  A    between atoms: C19_20  and  C20_21 
REMARK    5  A    between atoms: C20_21  and  C21_22 
REMARK    6  A    between atoms: C26_27  and  C27_28 
ROOT
HETATM    1  C1  UNL     1       0.267  -1.975  -0.704  1.00  0.00     0.129 A 
HETATM    2  C2  UNL     1       0.634  -3.293  -0.420  1.00  0.00     0.054 A 
HETATM    3  C3  UNL     1       1.851  -3.637   0.168  1.00  0.00     0.136 A 
HETATM    4  C4  UNL     1       2.759  -2.594   0.415  1.00  0.00     0.061 A 
HETATM    5  C5  UNL     1       2.451  -1.267   0.090  1.00  0.00    -0.014 A 
HETATM    6  C6  UNL     1       1.170  -0.944  -0.398  1.00  0.00     0.004 A 
HETATM    7  C12 UNL     1       3.487  -0.194   0.320  1.00  0.00     0.052 C 
HETATM    8  C13 UNL     1       4.925  -0.656   0.301  1.00  0.00    -0.017 A 
HETATM    9  C14 UNL     1       5.217  -1.979   0.646  1.00  0.00     0.060 A 
HETATM   10  C15 UNL     1       4.097  -2.899   0.994  1.00  0.00     0.199 C 
HETATM   11  O1  UNL     1       4.259  -3.889   1.698  1.00  0.00    -0.286 OA
HETATM   12  C16 UNL     1       6.528  -2.482   0.627  1.00  0.00     0.130 A 
HETATM   13  C17 UNL     1       7.566  -1.639   0.198  1.00  0.00     0.003 A 
HETATM   14  C18 UNL     1       7.284  -0.310  -0.174  1.00  0.00    -0.027 A 
HETATM   15  C19 UNL     1       5.979   0.210  -0.046  1.00  0.00    -0.025 A 
HETATM   16  C25 UNL     1       8.369   0.553  -0.793  1.00  0.00     0.030 C 
HETATM   17  O2  UNL     1       6.761  -3.793   0.906  1.00  0.00    -0.190 OA
HETATM   18  O3  UNL     1       2.130  -4.948   0.412  1.00  0.00    -0.190 OA
HETATM   19  O4  UNL     1      -0.942  -1.725  -1.277  1.00  0.00    -0.190 OA
ENDROOT
BRANCH   6  20
HETATM   20  C7  UNL     1       0.738   0.497  -0.611  1.00  0.00     0.053 C 
BRANCH  20  21
HETATM   21  C8  UNL     1      -0.609   0.791   0.005  1.00  0.00    -0.030 C 
HETATM   22  C9  UNL     1      -1.483   1.727  -0.407  1.00  0.00    -0.048 C 
HETATM   23  C10 UNL     1      -2.812   1.915   0.288  1.00  0.00     0.026 C 
HETATM   24  C11 UNL     1      -1.236   2.677  -1.554  1.00  0.00     0.026 C 
ENDBRANCH  20  21
ENDBRANCH   6  20
BRANCH  15  25
HETATM   25  C20 UNL     1       5.705   1.681  -0.337  1.00  0.00     0.051 C 
BRANCH  25  26
HETATM   26  C21 UNL     1       4.829   2.353   0.693  1.00  0.00    -0.030 C 
HETATM   27  C22 UNL     1       3.805   3.197   0.466  1.00  0.00    -0.048 C 
HETATM   28  C23 UNL     1       2.986   3.754   1.608  1.00  0.00     0.026 C 
HETATM   29  C24 UNL     1       3.353   3.661  -0.897  1.00  0.00     0.026 C 
ENDBRANCH  25  26
ENDBRANCH  15  25
BRANCH  13  30
HETATM   30  C26 UNL     1       8.982  -2.189   0.107  1.00  0.00     0.053 C 
BRANCH  30  31
HETATM   31  C27 UNL     1      10.009  -1.334   0.806  1.00  0.00    -0.030 C 
HETATM   32  C28 UNL     1      11.306  -1.221   0.467  1.00  0.00    -0.048 C 
HETATM   33  C29 UNL     1      12.240  -0.311   1.232  1.00  0.00     0.026 C 
HETATM   34  C30 UNL     1      11.958  -1.960  -0.678  1.00  0.00     0.026 C 
ENDBRANCH  30  31
ENDBRANCH  13  30
TORSDOF 6
