REMARK  3 active torsions:
REMARK  status: ('A' for Active; 'I' for Inactive)
REMARK    1  A    between atoms: C3_3  and  C31_33 
REMARK    2  A    between atoms: C16_16  and  C25_25 
REMARK    3  A    between atoms: C25_25  and  O2_27 
ROOT
HETATM    1  C1  UNL     1      -1.523   1.313  -0.287  1.00  0.00     0.033 C 
HETATM    2  C2  UNL     1      -2.331   0.036  -0.103  1.00  0.00     0.154 C 
HETATM    3  C3  UNL     1      -1.530  -1.222  -0.524  1.00  0.00     0.059 C 
HETATM    4  C4  UNL     1       0.013  -0.979  -0.426  1.00  0.00     0.005 C 
HETATM    5  C5  UNL     1       0.532  -0.002   0.672  1.00  0.00     0.001 C 
HETATM    6  C6  UNL     1      -0.252   1.345   0.573  1.00  0.00     0.003 C 
HETATM    7  C7  UNL     1       2.057   0.287   0.402  1.00  0.00     0.005 C 
HETATM    8  C8  UNL     1       3.031  -0.888   0.087  1.00  0.00     0.004 C 
HETATM    9  C9  UNL     1       2.333  -1.924  -0.827  1.00  0.00     0.000 C 
HETATM   10  C10 UNL     1       0.887  -2.251  -0.429  1.00  0.00     0.000 C 
HETATM   11  C11 UNL     1       4.341  -0.298  -0.598  1.00  0.00     0.015 C 
HETATM   12  C12 UNL     1       4.967   0.732   0.344  1.00  0.00    -0.049 C 
HETATM   13  C13 UNL     1       4.200   1.434   1.196  1.00  0.00    -0.035 C 
HETATM   14  C14 UNL     1       2.722   1.243   1.410  1.00  0.00     0.025 C 
HETATM   15  C15 UNL     1       6.452   1.060   0.270  1.00  0.00     0.027 C 
HETATM   16  C16 UNL     1       7.311  -0.213   0.125  1.00  0.00     0.082 C 
HETATM   17  C17 UNL     1       6.807  -0.994  -1.107  1.00  0.00     0.010 C 
HETATM   18  C18 UNL     1       5.344  -1.433  -0.936  1.00  0.00     0.004 C 
HETATM   19  C19 UNL     1       8.804   0.160  -0.004  1.00  0.00     0.010 C 
HETATM   20  C20 UNL     1       9.092   1.243  -1.053  1.00  0.00     0.001 C 
HETATM   21  C21 UNL     1       8.267   2.530  -0.849  1.00  0.00     0.000 C 
HETATM   22  C22 UNL     1       6.771   2.156  -0.765  1.00  0.00     0.004 C 
HETATM   23  C23 UNL     1       8.489   3.461  -2.064  1.00  0.00     0.000 C 
HETATM   24  C24 UNL     1       8.725   3.298   0.409  1.00  0.00     0.000 C 
HETATM   25  C27 UNL     1       4.061   0.459  -1.927  1.00  0.00     0.004 C 
HETATM   26  C28 UNL     1       3.421  -1.626   1.399  1.00  0.00     0.000 C 
HETATM   27  C29 UNL     1       0.279  -0.557   2.097  1.00  0.00     0.000 C 
HETATM   28  C30 UNL     1      -1.994  -2.458   0.277  1.00  0.00     0.005 C 
HETATM   29  O4  UNL     1      -2.813  -0.024   1.218  1.00  0.00    -0.223 OA
ENDROOT
BRANCH  16  30
HETATM   30  C25 UNL     1       7.234  -1.143   1.348  1.00  0.00     0.271 C 
HETATM   31  O1  UNL     1       7.550  -2.312   1.328  1.00  0.00    -0.264 OA
BRANCH  30  32
HETATM   32  O2  UNL     1       6.818  -0.496   2.469  1.00  0.00    -0.299 OA
HETATM   33  C26 UNL     1       6.755  -1.258   3.651  1.00  0.00     0.184 C 
ENDBRANCH  30  32
ENDBRANCH  16  30
BRANCH   3  34
HETATM   34  C31 UNL     1      -1.944  -1.458  -2.005  1.00  0.00     0.185 C 
HETATM   35  O3  UNL     1      -1.277  -2.549  -2.604  1.00  0.00    -0.221 OA
ENDBRANCH   3  34
TORSDOF 3
