REMARK  11 active torsions:
REMARK  status: ('A' for Active; 'I' for Inactive)
REMARK    1  A    between atoms: C3_3  and  C4_4 
REMARK    2  A    between atoms: C4_4  and  C5_5 
REMARK    3  A    between atoms: C4_4  and  O4_20 
REMARK    4  A    between atoms: C5_5  and  C6_6 
REMARK    5  A    between atoms: C5_5  and  O2_16 
REMARK    6  A    between atoms: C7_7  and  C8_8 
REMARK    7  A    between atoms: C8_8  and  C9_9 
REMARK    8  A    between atoms: C9_9  and  C10_10 
REMARK    9  A    between atoms: C10_10  and  C11_11 
REMARK   10  A    between atoms: O2_16  and  C15_17 
REMARK   11  A    between atoms: O4_20  and  C17_21 
ROOT
HETATM    1  C5  UNL     1       1.469  -0.331  -1.095  1.00  0.00     0.174 C 
ENDROOT
BRANCH   1   2
HETATM    2  C4  UNL     1       1.117  -1.038  -2.424  1.00  0.00     0.177 C 
BRANCH   2   3
HETATM    3  C3  UNL     1      -0.213  -1.765  -2.320  1.00  0.00    -0.002 C 
HETATM    4  C2  UNL     1      -1.440  -1.213  -2.290  1.00  0.00    -0.045 C 
HETATM    5  C1  UNL     1      -2.679  -2.074  -2.194  1.00  0.00     0.026 C 
HETATM    6  C19 UNL     1      -1.727   0.268  -2.344  1.00  0.00     0.026 C 
ENDBRANCH   2   3
BRANCH   2   7
HETATM    7  O4  UNL     1       1.081  -0.181  -3.547  1.00  0.00    -0.297 OA
BRANCH   7   8
HETATM    8  C17 UNL     1       2.258   0.320  -4.011  1.00  0.00     0.273 C 
HETATM    9  C18 UNL     1       2.005   1.273  -5.160  1.00  0.00     0.106 C 
HETATM   10  O5  UNL     1       3.351   0.059  -3.562  1.00  0.00    -0.264 OA
ENDBRANCH   7   8
ENDBRANCH   2   7
ENDBRANCH   1   2
BRANCH   1  11
HETATM   11  C6  UNL     1       2.605  -0.924  -0.256  1.00  0.00    -0.018 C 
HETATM   12  C7  UNL     1       2.846  -0.408   0.965  1.00  0.00    -0.032 C 
HETATM   13  C14 UNL     1       3.448  -2.046  -0.817  1.00  0.00     0.029 C 
BRANCH  12  14
HETATM   14  C8  UNL     1       3.970  -0.798   1.895  1.00  0.00     0.028 C 
BRANCH  14  15
HETATM   15  C9  UNL     1       4.131   0.199   3.058  1.00  0.00     0.039 C 
BRANCH  15  16
HETATM   16  C10 UNL     1       5.314  -0.075   3.999  1.00  0.00     0.146 C 
HETATM   17  C13 UNL     1       6.664   0.084   3.294  1.00  0.00     0.038 C 
HETATM   18  O1  UNL     1       5.210  -1.402   4.470  1.00  0.00    -0.222 OA
BRANCH  16  19
HETATM   19  C11 UNL     1       5.266   0.859   5.192  1.00  0.00     0.003 C 
HETATM   20  C12 UNL     1       6.034   0.720   6.283  1.00  0.00    -0.002 C 
ENDBRANCH  16  19
ENDBRANCH  15  16
ENDBRANCH  14  15
ENDBRANCH  12  14
ENDBRANCH   1  11
BRANCH   1  21
HETATM   21  O2  UNL     1       1.736   1.040  -1.320  1.00  0.00    -0.297 OA
BRANCH  21  22
HETATM   22  C15 UNL     1       1.077   1.992  -0.606  1.00  0.00     0.273 C 
HETATM   23  C16 UNL     1       1.540   3.370  -1.034  1.00  0.00     0.106 C 
HETATM   24  O3  UNL     1       0.232   1.788   0.236  1.00  0.00    -0.264 OA
ENDBRANCH  21  22
ENDBRANCH   1  21
TORSDOF 11
