REMARK  7 active torsions:
REMARK  status: ('A' for Active; 'I' for Inactive)
REMARK    1  A    between atoms: C3_3  and  C4_4 
REMARK    2  A    between atoms: C4_4  and  C5_5 
REMARK    3  A    between atoms: C5_5  and  C6_6 
REMARK    4  A    between atoms: C7_7  and  C8_8 
REMARK    5  A    between atoms: C8_8  and  C9_9 
REMARK    6  A    between atoms: C9_9  and  C10_10 
REMARK    7  A    between atoms: C10_10  and  C11_11 
ROOT
HETATM    1  C6  UNL     1       2.151   0.890   0.620  1.00  0.00    -0.018 C 
HETATM    2  C7  UNL     1       3.004  -0.127   0.388  1.00  0.00    -0.032 C 
HETATM    3  C14 UNL     1       1.166   1.378  -0.415  1.00  0.00     0.029 C 
ENDROOT
BRANCH   1   4
HETATM    4  C5  UNL     1       2.220   1.605   1.956  1.00  0.00     0.174 C 
HETATM    5  O2  UNL     1       3.466   2.281   2.002  1.00  0.00    -0.219 OA
BRANCH   4   6
HETATM    6  C4  UNL     1       1.116   2.610   2.286  1.00  0.00     0.062 C 
BRANCH   6   7
HETATM    7  C3  UNL     1      -0.251   1.980   2.387  1.00  0.00    -0.032 C 
HETATM    8  C2  UNL     1      -1.425   2.609   2.199  1.00  0.00    -0.048 C 
HETATM    9  C1  UNL     1      -2.736   1.860   2.265  1.00  0.00     0.026 C 
HETATM   10  C15 UNL     1      -1.561   4.083   1.904  1.00  0.00     0.026 C 
ENDBRANCH   6   7
ENDBRANCH   4   6
ENDBRANCH   1   4
BRANCH   2  11
HETATM   11  C8  UNL     1       3.080  -0.930  -0.887  1.00  0.00     0.028 C 
BRANCH  11  12
HETATM   12  C9  UNL     1       4.207  -1.979  -0.869  1.00  0.00     0.039 C 
BRANCH  12  13
HETATM   13  C10 UNL     1       4.229  -2.926  -2.080  1.00  0.00     0.146 C 
HETATM   14  C13 UNL     1       4.375  -2.174  -3.405  1.00  0.00     0.038 C 
HETATM   15  O1  UNL     1       3.008  -3.638  -2.101  1.00  0.00    -0.222 OA
BRANCH  13  16
HETATM   16  C11 UNL     1       5.354  -3.932  -1.944  1.00  0.00     0.003 C 
HETATM   17  C12 UNL     1       5.490  -5.011  -2.728  1.00  0.00    -0.002 C 
ENDBRANCH  13  16
ENDBRANCH  12  13
ENDBRANCH  11  12
ENDBRANCH   2  11
TORSDOF 7
