REMARK  4 active torsions:
REMARK  status: ('A' for Active; 'I' for Inactive)
REMARK    1  A    between atoms: C5_6  and  C8_10 
REMARK    2  A    between atoms: C8_10  and  C9_11 
REMARK    3  A    between atoms: C10_12  and  C11_13 
REMARK    4  A    between atoms: C11_13  and  C12_15 
ROOT
HETATM    1  C8  UNL     1      -0.718  -0.129  -1.492  1.00  0.00     0.046 C 
HETATM    2  C15 UNL     1      -2.001  -0.033  -2.333  1.00  0.00     0.009 C 
ENDROOT
BRANCH   1   3
HETATM    3  C5  UNL     1       0.150   1.118  -1.556  1.00  0.00     0.009 A 
HETATM    4  C4  UNL     1       1.475   1.008  -1.995  1.00  0.00     0.025 A 
HETATM    5  C3  UNL     1       2.347   2.096  -2.076  1.00  0.00     0.127 A 
HETATM    6  C2  UNL     1       1.867   3.356  -1.700  1.00  0.00     0.006 A 
HETATM    7  O1  UNL     1       3.626   1.918  -2.502  1.00  0.00    -0.191 OA
HETATM    8  C1  UNL     1       2.775   4.561  -1.761  1.00  0.00     0.033 C 
HETATM    9  C7  UNL     1       0.550   3.471  -1.249  1.00  0.00     0.025 A 
HETATM   10  C6  UNL     1      -0.323   2.382  -1.172  1.00  0.00     0.127 A 
HETATM   11  O2  UNL     1      -1.579   2.560  -0.683  1.00  0.00    -0.191 OA
ENDBRANCH   1   3
BRANCH   1  12
HETATM   12  C9  UNL     1      -1.005  -0.464  -0.049  1.00  0.00    -0.024 C 
HETATM   13  C10 UNL     1      -0.290  -1.355   0.655  1.00  0.00     0.004 C 
BRANCH  13  14
HETATM   14  C11 UNL     1      -0.535  -1.698   2.105  1.00  0.00     0.202 C 
HETATM   15  O3  UNL     1      -1.058  -0.585   2.810  1.00  0.00    -0.216 OA
BRANCH  14  16
HETATM   16  C12 UNL     1      -1.442  -2.914   2.286  1.00  0.00     0.159 C 
HETATM   17  O4  UNL     1      -0.843  -3.999   1.624  1.00  0.00    -0.223 OA
HETATM   18  C13 UNL     1      -2.833  -2.714   1.680  1.00  0.00     0.036 C 
HETATM   19  C14 UNL     1      -1.559  -3.293   3.765  1.00  0.00     0.036 C 
ENDBRANCH  14  16
ENDBRANCH  13  14
ENDBRANCH   1  12
TORSDOF 4
