REMARK  2 active torsions:
REMARK  status: ('A' for Active; 'I' for Inactive)
REMARK    1  A    between atoms: O1_2  and  C2_3 
REMARK    2  A    between atoms: C3_4  and  O2_5 
ROOT
HETATM    1  C2  UNL     1      -1.282   0.534   0.220  1.00  0.00     0.158 A 
HETATM    2  C3  UNL     1      -1.234  -0.821   0.342  1.00  0.00     0.158 A 
HETATM    3  C5  UNL     1       0.074  -1.536   0.241  1.00  0.00     0.215 A 
HETATM    4  C6  UNL     1       1.308  -0.758  -0.033  1.00  0.00     0.018 A 
HETATM    5  C7  UNL     1       1.256   0.581  -0.156  1.00  0.00     0.018 A 
HETATM    6  C8  UNL     1      -0.023   1.312   0.013  1.00  0.00     0.215 A 
HETATM    7  O3  UNL     1      -0.006   2.534  -0.059  1.00  0.00    -0.285 OA
HETATM    8  C9  UNL     1       2.539   1.313  -0.457  1.00  0.00     0.030 C 
HETATM    9  C10 UNL     1       3.680   0.766   0.427  1.00  0.00     0.008 C 
HETATM   10  C11 UNL     1       3.917  -0.738   0.115  1.00  0.00     0.023 C 
HETATM   11  C12 UNL     1       2.614  -1.472  -0.289  1.00  0.00     0.034 C 
HETATM   12  C13 UNL     1       5.052  -1.074  -0.848  1.00  0.00    -0.044 C 
HETATM   13  C14 UNL     1       6.201  -0.104  -0.979  1.00  0.00     0.022 C 
HETATM   14  C15 UNL     1       5.696   1.337  -1.051  1.00  0.00     0.004 C 
HETATM   15  C16 UNL     1       4.942   1.640   0.245  1.00  0.00     0.001 C 
HETATM   16  C17 UNL     1       5.142  -2.260  -1.476  1.00  0.00    -0.009 C 
HETATM   17  C18 UNL     1       3.255   0.929   1.913  1.00  0.00     0.001 C 
HETATM   18  O4  UNL     1       0.172  -2.750   0.364  1.00  0.00    -0.285 OA
ENDROOT
BRANCH   1  19
HETATM   19  O1  UNL     1      -2.524   1.127   0.303  1.00  0.00    -0.323 OA
HETATM   20  C1  UNL     1      -2.662   2.526   0.262  1.00  0.00     0.182 C 
ENDBRANCH   1  19
BRANCH   2  21
HETATM   21  O2  UNL     1      -2.433  -1.484   0.491  1.00  0.00    -0.323 OA
HETATM   22  C4  UNL     1      -2.502  -2.882   0.353  1.00  0.00     0.182 C 
ENDBRANCH   2  21
TORSDOF 2
