REMARK  4 active torsions:
REMARK  status: ('A' for Active; 'I' for Inactive)
REMARK    1  A    between atoms: C3_3  and  O2_9 
REMARK    2  A    between atoms: C6_6  and  C7_7 
REMARK    3  A    between atoms: O2_9  and  C8_10 
REMARK    4  A    between atoms: C9_12  and  C13_19 
ROOT
HETATM    1  C8  UNL     1      -0.848  -0.425   0.400  1.00  0.00     0.274 C 
HETATM    2  O3  UNL     1      -0.463  -1.098   1.580  1.00  0.00    -0.326 OA
HETATM    3  C9  UNL     1      -1.174  -2.294   1.755  1.00  0.00     0.184 C 
HETATM    4  C10 UNL     1      -0.847  -3.255   0.616  1.00  0.00     0.215 C 
HETATM    5  C11 UNL     1      -1.058  -2.626  -0.748  1.00  0.00     0.220 C 
HETATM    6  C12 UNL     1      -0.442  -1.244  -0.805  1.00  0.00     0.241 C 
HETATM    7  O4  UNL     1      -0.886  -0.610  -1.978  1.00  0.00    -0.215 OA
HETATM    8  O5  UNL     1      -2.441  -2.496  -0.970  1.00  0.00    -0.218 OA
HETATM    9  O6  UNL     1      -1.684  -4.386   0.687  1.00  0.00    -0.218 OA
ENDROOT
BRANCH   1  10
HETATM   10  O2  UNL     1      -0.104   0.771   0.461  1.00  0.00    -0.304 OA
BRANCH  10  11
HETATM   11  C3  UNL     1      -0.501   1.864  -0.272  1.00  0.00     0.097 A 
HETATM   12  C2  UNL     1       0.422   2.902  -0.458  1.00  0.00     0.024 A 
HETATM   13  C1  UNL     1       0.132   4.060  -1.184  1.00  0.00     0.005 A 
HETATM   14  C6  UNL     1      -1.121   4.201  -1.789  1.00  0.00     0.042 A 
HETATM   15  C5  UNL     1      -2.050   3.159  -1.667  1.00  0.00     0.005 A 
HETATM   16  C4  UNL     1      -1.735   2.017  -0.931  1.00  0.00     0.024 A 
BRANCH  14  17
HETATM   17  C7  UNL     1      -1.461   5.425  -2.551  1.00  0.00     0.234 C 
HETATM   18  O1  UNL     1      -0.692   6.364  -2.700  1.00  0.00    -0.283 OA
ENDBRANCH  14  17
ENDBRANCH  10  11
ENDBRANCH   1  10
BRANCH   3  19
HETATM   19  C13 UNL     1      -0.811  -2.875   3.115  1.00  0.00     0.214 C 
HETATM   20  O7  UNL     1      -1.280  -2.016   4.136  1.00  0.00    -0.218 OA
ENDBRANCH   3  19
TORSDOF 4
