REMARK  6 active torsions:
REMARK  status: ('A' for Active; 'I' for Inactive)
REMARK    1  A    between atoms: C1_1  and  O5_22 
REMARK    2  A    between atoms: C4_4  and  C9_11 
REMARK    3  A    between atoms: C5_5  and  O2_9 
REMARK    4  A    between atoms: C6_6  and  O1_7 
REMARK    5  A    between atoms: C9_11  and  C10_12 
REMARK    6  A    between atoms: C11_13  and  C12_14 
ROOT
HETATM    1  C1  UNL     1       6.282   0.951  -0.073  1.00  0.00     0.120 A 
HETATM    2  C2  UNL     1       6.723  -0.364   0.093  1.00  0.00     0.054 A 
HETATM    3  C3  UNL     1       5.899  -1.413   0.488  1.00  0.00     0.138 A 
HETATM    4  C4  UNL     1       4.579  -1.079   0.809  1.00  0.00     0.089 A 
HETATM    5  C5  UNL     1       4.089   0.242   0.730  1.00  0.00     0.123 A 
HETATM    6  C6  UNL     1       4.952   1.278   0.286  1.00  0.00     0.139 A 
HETATM    7  O4  UNL     1       6.408  -2.670   0.606  1.00  0.00    -0.190 OA
ENDROOT
BRANCH   4   8
HETATM    8  C9  UNL     1       3.700  -2.192   1.312  1.00  0.00     0.200 C 
HETATM    9  O3  UNL     1       4.149  -2.997   2.120  1.00  0.00    -0.286 OA
BRANCH   8  10
HETATM   10  C10 UNL     1       2.266  -2.294   0.921  1.00  0.00     0.042 C 
HETATM   11  C11 UNL     1       1.733  -1.776  -0.207  1.00  0.00     0.003 C 
BRANCH  11  12
HETATM   12  C12 UNL     1       0.292  -1.774  -0.509  1.00  0.00     0.000 A 
HETATM   13  C13 UNL     1      -0.195  -0.838  -1.439  1.00  0.00     0.000 A 
HETATM   14  C14 UNL     1      -1.558  -0.742  -1.716  1.00  0.00     0.000 A 
HETATM   15  C15 UNL     1      -2.463  -1.597  -1.082  1.00  0.00     0.000 A 
HETATM   16  C16 UNL     1      -1.992  -2.557  -0.187  1.00  0.00     0.000 A 
HETATM   17  C17 UNL     1      -0.625  -2.649   0.092  1.00  0.00     0.000 A 
ENDBRANCH  11  12
ENDBRANCH   8  10
ENDBRANCH   4   8
BRANCH   5  18
HETATM   18  O2  UNL     1       2.792   0.414   1.166  1.00  0.00    -0.326 OA
HETATM   19  C8  UNL     1       2.195   1.669   1.371  1.00  0.00     0.181 C 
ENDBRANCH   5  18
BRANCH   6  20
HETATM   20  O1  UNL     1       4.445   2.557   0.268  1.00  0.00    -0.324 OA
HETATM   21  C7  UNL     1       5.252   3.705   0.194  1.00  0.00     0.182 C 
ENDBRANCH   6  20
BRANCH   1  22
HETATM   22  O5  UNL     1       7.223   1.885  -0.422  1.00  0.00    -0.326 OA
HETATM   23  C18 UNL     1       7.601   1.856  -1.779  1.00  0.00     0.181 C 
ENDBRANCH   1  22
TORSDOF 6
