REMARK  5 active torsions:
REMARK  status: ('A' for Active; 'I' for Inactive)
REMARK    1  A    between atoms: C5_6  and  C8_10 
REMARK    2  A    between atoms: C8_10  and  C9_11 
REMARK    3  A    between atoms: C9_11  and  C10_12 
REMARK    4  A    between atoms: C10_12  and  C11_13 
REMARK    5  A    between atoms: C11_13  and  C12_15 
ROOT
HETATM    1  C8  UNL     1      -0.904   0.336   1.543  1.00  0.00     0.025 C 
HETATM    2  C15 UNL     1      -0.601  -0.123   2.979  1.00  0.00     0.005 C 
ENDROOT
BRANCH   1   3
HETATM    3  C5  UNL     1      -0.037   1.529   1.161  1.00  0.00     0.005 A 
HETATM    4  C4  UNL     1       1.357   1.403   1.183  1.00  0.00     0.025 A 
HETATM    5  C3  UNL     1       2.230   2.439   0.843  1.00  0.00     0.127 A 
HETATM    6  C2  UNL     1       1.675   3.666   0.457  1.00  0.00     0.006 A 
HETATM    7  O1  UNL     1       3.573   2.238   0.892  1.00  0.00    -0.191 OA
HETATM    8  C1  UNL     1       2.537   4.844   0.073  1.00  0.00     0.033 C 
HETATM    9  C7  UNL     1       0.284   3.796   0.423  1.00  0.00     0.025 A 
HETATM   10  C6  UNL     1      -0.589   2.757   0.760  1.00  0.00     0.127 A 
HETATM   11  O2  UNL     1      -1.931   2.971   0.698  1.00  0.00    -0.191 OA
ENDBRANCH   1   3
BRANCH   1  12
HETATM   12  C9  UNL     1      -0.750  -0.783   0.491  1.00  0.00     0.007 C 
BRANCH  12  13
HETATM   13  C10 UNL     1      -1.810  -1.889   0.609  1.00  0.00     0.036 C 
BRANCH  13  14
HETATM   14  C11 UNL     1      -1.735  -3.028  -0.415  1.00  0.00     0.180 C 
HETATM   15  O3  UNL     1      -0.559  -3.776  -0.221  1.00  0.00    -0.221 OA
BRANCH  14  16
HETATM   16  C12 UNL     1      -1.886  -2.719  -1.907  1.00  0.00     0.155 C 
HETATM   17  O4  UNL     1      -2.232  -3.941  -2.514  1.00  0.00    -0.223 OA
HETATM   18  C13 UNL     1      -0.603  -2.266  -2.612  1.00  0.00     0.036 C 
HETATM   19  C14 UNL     1      -3.028  -1.739  -2.182  1.00  0.00     0.036 C 
ENDBRANCH  14  16
ENDBRANCH  13  14
ENDBRANCH  12  13
ENDBRANCH   1  12
TORSDOF 5
