REMARK  3 active torsions:
REMARK  status: ('A' for Active; 'I' for Inactive)
REMARK    1  A    between atoms: C19_26  and  O9_29 
REMARK    2  A    between atoms: O9_29  and  C21_30 
REMARK    3  A    between atoms: C21_30  and  C22_32 
ROOT
HETATM    1  C1  UNL     1       1.361   3.037  -1.048  1.00  0.00     0.035 C 
HETATM    2  C2  UNL     1       0.760   4.212  -0.553  1.00  0.00     0.158 C 
HETATM    3  C3  UNL     1      -0.584   4.511  -0.819  1.00  0.00     0.181 C 
HETATM    4  C4  UNL     1      -1.406   3.612  -1.498  1.00  0.00     0.158 C 
HETATM    5  C5  UNL     1      -0.889   2.349  -1.780  1.00  0.00     0.035 C 
HETATM    6  C6  UNL     1       0.448   2.061  -1.504  1.00  0.00     0.067 C 
HETATM    7  C7  UNL     1       0.830   0.628  -1.549  1.00  0.00     0.296 C 
HETATM    8  O1  UNL     1       0.439  -0.334  -2.434  1.00  0.00    -0.296 OA
HETATM    9  C8  UNL     1       1.447  -0.974  -3.179  1.00  0.00     0.184 C 
HETATM   10  C9  UNL     1       2.063  -2.286  -2.645  1.00  0.00     0.181 C 
HETATM   11  O2  UNL     1       3.428  -2.183  -2.334  1.00  0.00    -0.326 OA
HETATM   12  C10 UNL     1       3.712  -1.653  -1.057  1.00  0.00     0.277 C 
HETATM   13  O3  UNL     1       3.501  -0.273  -1.231  1.00  0.00    -0.270 OA
HETATM   14  C11 UNL     1       3.599   0.645  -0.218  1.00  0.00     0.298 C 
HETATM   15  C12 UNL     1       3.827   2.095  -0.605  1.00  0.00     0.068 C 
HETATM   16  C13 UNL     1       2.878   3.033  -1.076  1.00  0.00     0.035 C 
HETATM   17  C14 UNL     1       3.441   4.181  -1.690  1.00  0.00     0.158 C 
HETATM   18  C15 UNL     1       4.804   4.500  -1.580  1.00  0.00     0.181 C 
HETATM   19  C16 UNL     1       5.690   3.642  -0.930  1.00  0.00     0.158 C 
HETATM   20  C17 UNL     1       5.182   2.419  -0.505  1.00  0.00     0.035 C 
HETATM   21  O4  UNL     1       7.014   3.924  -0.808  1.00  0.00    -0.188 OA
HETATM   22  O5  UNL     1       5.259   5.675  -2.095  1.00  0.00    -0.186 OA
HETATM   23  O6  UNL     1       2.688   5.099  -2.363  1.00  0.00    -0.188 OA
HETATM   24  O7  UNL     1       3.836   0.293   0.929  1.00  0.00    -0.259 OA
HETATM   25  C18 UNL     1       2.995  -2.418   0.046  1.00  0.00     0.239 C 
HETATM   26  C19 UNL     1       1.539  -2.831  -0.181  1.00  0.00     0.193 C 
HETATM   27  C20 UNL     1       1.350  -3.194  -1.650  1.00  0.00     0.212 C 
HETATM   28  O8  UNL     1       1.878  -4.498  -1.802  1.00  0.00    -0.218 OA
HETATM   29  O14 UNL     1       3.706  -3.635   0.182  1.00  0.00    -0.215 OA
HETATM   30  O15 UNL     1       1.292   0.345  -0.455  1.00  0.00    -0.259 OA
HETATM   31  O16 UNL     1      -2.709   3.915  -1.728  1.00  0.00    -0.188 OA
HETATM   32  O17 UNL     1      -1.101   5.708  -0.441  1.00  0.00    -0.186 OA
HETATM   33  O18 UNL     1       1.497   5.187   0.043  1.00  0.00    -0.188 OA
ENDROOT
BRANCH  26  34
HETATM   34  O9  UNL     1       0.613  -1.852   0.160  1.00  0.00    -0.295 OA
BRANCH  34  35
HETATM   35  C21 UNL     1      -0.233  -1.952   1.224  1.00  0.00     0.296 C 
HETATM   36  O10 UNL     1      -1.211  -1.212   1.267  1.00  0.00    -0.259 OA
BRANCH  35  37
HETATM   37  C22 UNL     1      -0.039  -2.816   2.436  1.00  0.00     0.067 A 
HETATM   38  C23 UNL     1      -1.111  -3.560   2.936  1.00  0.00     0.035 A 
HETATM   39  C24 UNL     1      -0.968  -4.311   4.105  1.00  0.00     0.158 A 
HETATM   40  C25 UNL     1       0.251  -4.280   4.792  1.00  0.00     0.181 A 
HETATM   41  O13 UNL     1      -1.993  -5.041   4.616  1.00  0.00    -0.188 OA
HETATM   42  C26 UNL     1       1.328  -3.529   4.310  1.00  0.00     0.158 A 
HETATM   43  O12 UNL     1       0.393  -4.966   5.956  1.00  0.00    -0.186 OA
HETATM   44  C27 UNL     1       1.170  -2.794   3.134  1.00  0.00     0.035 A 
HETATM   45  O11 UNL     1       2.481  -3.471   5.024  1.00  0.00    -0.188 OA
ENDBRANCH  35  37
ENDBRANCH  34  35
ENDBRANCH  26  34
TORSDOF 3
