REMARK  5 active torsions:
REMARK  status: ('A' for Active; 'I' for Inactive)
REMARK    1  A    between atoms: C4_4  and  O5_29 
REMARK    2  A    between atoms: C5_5  and  C24_27 
REMARK    3  A    between atoms: C15_15  and  C18_18 
REMARK    4  A    between atoms: O5_29  and  C25_30 
REMARK    5  A    between atoms: C26_32  and  C30_39 
ROOT
HETATM    1  C1  UNL     1      -2.000  -1.255  -0.558  1.00  0.00     0.033 C 
HETATM    2  C2  UNL     1      -1.477  -2.539   0.051  1.00  0.00     0.145 A 
HETATM    3  C3  UNL     1      -0.168  -2.605   0.545  1.00  0.00     0.167 A 
HETATM    4  C4  UNL     1       0.826  -1.414   0.538  1.00  0.00     0.129 C 
HETATM    5  C5  UNL     1       0.221  -0.045   0.060  1.00  0.00     0.084 C 
HETATM    6  C6  UNL     1      -0.888  -0.298  -0.993  1.00  0.00     0.012 C 
HETATM    7  C7  UNL     1       1.278   0.867  -0.653  1.00  0.00     0.012 C 
HETATM    8  C8  UNL     1       2.715   0.670  -0.151  1.00  0.00     0.029 C 
HETATM    9  C9  UNL     1       3.129  -0.756  -0.559  1.00  0.00     0.005 C 
HETATM   10  C10 UNL     1       2.000  -1.789  -0.386  1.00  0.00     0.030 C 
HETATM   11  C11 UNL     1       3.700   1.829  -0.466  1.00  0.00     0.127 C 
HETATM   12  C12 UNL     1       3.334   2.722  -1.681  1.00  0.00     0.030 C 
HETATM   13  C13 UNL     1       1.820   3.018  -1.810  1.00  0.00     0.003 C 
HETATM   14  C14 UNL     1       0.954   2.364  -0.724  1.00  0.00     0.001 C 
HETATM   15  C15 UNL     1       3.898   1.867  -2.846  1.00  0.00     0.027 C 
HETATM   16  C16 UNL     1       5.208   1.248  -2.319  1.00  0.00     0.007 C 
HETATM   17  C17 UNL     1       5.129   1.366  -0.787  1.00  0.00     0.031 C 
HETATM   18  C23 UNL     1       4.063   4.089  -1.636  1.00  0.00     0.003 C 
HETATM   19  O3  UNL     1       3.770   2.635   0.686  1.00  0.00    -0.226 OA
HETATM   20  O11 UNL     1      -1.284  -2.285   1.557  1.00  0.00    -0.352 OA
ENDROOT
BRANCH   4  21
HETATM   21  O5  UNL     1       1.145  -1.265   1.909  1.00  0.00    -0.331 OA
BRANCH  21  22
HETATM   22  C25 UNL     1       2.399  -1.587   2.442  1.00  0.00     0.270 C 
HETATM   23  O6  UNL     1       2.597  -2.979   2.412  1.00  0.00    -0.326 OA
HETATM   24  C26 UNL     1       3.870  -3.313   2.905  1.00  0.00     0.184 C 
HETATM   25  C27 UNL     1       3.959  -2.907   4.375  1.00  0.00     0.215 C 
HETATM   26  C28 UNL     1       3.682  -1.425   4.533  1.00  0.00     0.220 C 
HETATM   27  O9  UNL     1       5.235  -3.161   4.909  1.00  0.00    -0.218 OA
HETATM   28  C29 UNL     1       2.360  -1.101   3.874  1.00  0.00     0.241 C 
HETATM   29  O8  UNL     1       3.619  -1.098   5.898  1.00  0.00    -0.218 OA
HETATM   30  O7  UNL     1       2.155   0.293   3.887  1.00  0.00    -0.215 OA
BRANCH  24  31
HETATM   31  C30 UNL     1       4.111  -4.797   2.668  1.00  0.00     0.214 C 
HETATM   32  O10 UNL     1       5.501  -5.048   2.580  1.00  0.00    -0.218 OA
ENDBRANCH  24  31
ENDBRANCH  21  22
ENDBRANCH   4  21
BRANCH   5  33
HETATM   33  C24 UNL     1      -0.389   0.695   1.261  1.00  0.00     0.209 C 
HETATM   34  O4  UNL     1       0.268   1.343   2.044  1.00  0.00    -0.288 OA
ENDBRANCH   5  33
BRANCH  15  35
HETATM   35  C18 UNL     1       3.970   2.506  -4.221  1.00  0.00     0.003 A 
HETATM   36  C19 UNL     1       2.910   2.235  -5.192  1.00  0.00     0.003 A 
HETATM   37  C20 UNL     1       2.968   2.798  -6.418  1.00  0.00     0.068 A 
HETATM   38  C21 UNL     1       4.118   3.672  -6.728  1.00  0.00     0.300 A 
HETATM   39  O1  UNL     1       5.104   3.910  -5.820  1.00  0.00    -0.271 OA
HETATM   40  O2  UNL     1       4.167   4.186  -7.844  1.00  0.00    -0.259 OA
HETATM   41  C22 UNL     1       4.986   3.317  -4.597  1.00  0.00     0.122 A 
ENDBRANCH  15  35
TORSDOF 5
