REMARK  14 active torsions:
REMARK  status: ('A' for Active; 'I' for Inactive)
REMARK    1  A    between atoms: C2_2  and  O1_3 
REMARK    2  A    between atoms: C6_7  and  C8_9 
REMARK    3  A    between atoms: C8_9  and  C9_10 
REMARK    4  A    between atoms: C9_10  and  O2_11 
REMARK    5  A    between atoms: O2_11  and  C10_12 
REMARK    6  A    between atoms: C11_14  and  C31_45 
REMARK    7  A    between atoms: C12_15  and  O11_31 
REMARK    8  A    between atoms: C13_16  and  O5_19 
REMARK    9  A    between atoms: O5_19  and  C15_20 
REMARK   10  A    between atoms: C16_22  and  C20_29 
REMARK   11  A    between atoms: O11_31  and  C21_32 
REMARK   12  A    between atoms: C21_32  and  C22_33 
REMARK   13  A    between atoms: C23_34  and  C24_35 
REMARK   14  A    between atoms: C28_39  and  O12_40 
ROOT
HETATM    1  C10 UNL     1       7.560   1.730  -0.668  1.00  0.00     0.270 C 
HETATM    2  O3  UNL     1       6.921   1.857  -1.914  1.00  0.00    -0.326 OA
HETATM    3  C11 UNL     1       6.040   0.793  -2.173  1.00  0.00     0.181 C 
HETATM    4  C12 UNL     1       4.972   0.674  -1.076  1.00  0.00     0.184 C 
HETATM    5  C13 UNL     1       5.583   0.624   0.329  1.00  0.00     0.183 C 
HETATM    6  C14 UNL     1       6.537   1.803   0.437  1.00  0.00     0.238 C 
HETATM    7  O4  UNL     1       7.241   1.802   1.653  1.00  0.00    -0.215 OA
ENDROOT
BRANCH   4   8
HETATM    8  O11 UNL     1       4.223  -0.498  -1.262  1.00  0.00    -0.296 OA
BRANCH   8   9
HETATM    9  C21 UNL     1       2.888  -0.419  -1.542  1.00  0.00     0.296 C 
HETATM   10  O14 UNL     1       2.291   0.654  -1.508  1.00  0.00    -0.259 OA
BRANCH   9  11
HETATM   11  C22 UNL     1       2.152  -1.626  -1.993  1.00  0.00     0.068 C 
HETATM   12  C23 UNL     1       0.821  -1.622  -2.254  1.00  0.00     0.005 C 
BRANCH  12  13
HETATM   13  C24 UNL     1       0.025  -2.773  -2.702  1.00  0.00     0.002 C 
HETATM   14  C25 UNL     1      -1.350  -2.595  -2.921  1.00  0.00     0.002 C 
HETATM   15  C26 UNL     1      -2.148  -3.670  -3.301  1.00  0.00     0.029 C 
HETATM   16  C27 UNL     1      -1.609  -4.944  -3.507  1.00  0.00     0.153 C 
HETATM   17  C28 UNL     1      -0.221  -5.127  -3.394  1.00  0.00     0.119 C 
HETATM   18  O13 UNL     1      -2.423  -5.972  -3.870  1.00  0.00    -0.188 OA
HETATM   19  C30 UNL     1       0.548  -4.057  -2.913  1.00  0.00     0.026 C 
BRANCH  17  20
HETATM   20  O12 UNL     1       0.329  -6.377  -3.513  1.00  0.00    -0.326 OA
HETATM   21  C29 UNL     1       0.750  -6.681  -4.822  1.00  0.00     0.181 C 
ENDBRANCH  17  20
ENDBRANCH  12  13
ENDBRANCH   9  11
ENDBRANCH   8   9
ENDBRANCH   4   8
BRANCH   3  22
HETATM   22  C31 UNL     1       5.445   1.055  -3.554  1.00  0.00     0.214 C 
HETATM   23  O15 UNL     1       4.704  -0.058  -4.009  1.00  0.00    -0.218 OA
ENDBRANCH   3  22
BRANCH   5  24
HETATM   24  O5  UNL     1       4.549   0.739   1.272  1.00  0.00    -0.326 OA
BRANCH  24  25
HETATM   25  C15 UNL     1       4.868   0.257   2.561  1.00  0.00     0.270 C 
HETATM   26  O6  UNL     1       4.258  -1.012   2.668  1.00  0.00    -0.326 OA
HETATM   27  C16 UNL     1       4.531  -1.623   3.906  1.00  0.00     0.184 C 
HETATM   28  C17 UNL     1       4.001  -0.754   5.045  1.00  0.00     0.215 C 
HETATM   29  C18 UNL     1       4.576   0.644   4.961  1.00  0.00     0.220 C 
HETATM   30  O9  UNL     1       4.348  -1.281   6.302  1.00  0.00    -0.218 OA
HETATM   31  C19 UNL     1       4.281   1.197   3.586  1.00  0.00     0.241 C 
HETATM   32  O8  UNL     1       3.986   1.468   5.934  1.00  0.00    -0.218 OA
HETATM   33  O7  UNL     1       4.876   2.465   3.471  1.00  0.00    -0.215 OA
BRANCH  27  34
HETATM   34  C20 UNL     1       3.921  -3.019   3.901  1.00  0.00     0.214 C 
HETATM   35  O10 UNL     1       4.706  -3.894   4.687  1.00  0.00    -0.218 OA
ENDBRANCH  27  34
ENDBRANCH  24  25
ENDBRANCH   5  24
BRANCH   1  36
HETATM   36  O2  UNL     1       8.405   2.857  -0.537  1.00  0.00    -0.329 OA
BRANCH  36  37
HETATM   37  C9  UNL     1       9.775   2.540  -0.556  1.00  0.00     0.150 C 
BRANCH  37  38
HETATM   38  C8  UNL     1      10.562   3.786  -0.145  1.00  0.00     0.059 C 
BRANCH  38  39
HETATM   39  C6  UNL     1      12.065   3.612  -0.077  1.00  0.00    -0.018 A 
HETATM   40  C5  UNL     1      12.668   2.444   0.398  1.00  0.00    -0.002 A 
HETATM   41  C4  UNL     1      14.058   2.328   0.458  1.00  0.00     0.026 A 
HETATM   42  C2  UNL     1      14.915   3.368   0.069  1.00  0.00     0.119 A 
HETATM   43  C1  UNL     1      14.311   4.549  -0.395  1.00  0.00     0.153 A 
HETATM   44  C7  UNL     1      12.918   4.651  -0.459  1.00  0.00     0.025 A 
HETATM   45  O16 UNL     1      15.074   5.609  -0.778  1.00  0.00    -0.188 OA
BRANCH  42  46
HETATM   46  O1  UNL     1      16.286   3.308   0.110  1.00  0.00    -0.326 OA
HETATM   47  C3  UNL     1      16.896   2.112   0.537  1.00  0.00     0.181 C 
ENDBRANCH  42  46
ENDBRANCH  38  39
ENDBRANCH  37  38
ENDBRANCH  36  37
ENDBRANCH   1  36
TORSDOF 14
