REMARK  1 active torsions:
REMARK  status: ('A' for Active; 'I' for Inactive)
REMARK    1  A    between atoms: C1_1  and  C2_2 
ROOT
HETATM    1  C1  UNL     1       1.793   0.005  -0.008  1.00  0.00    -0.021 A 
HETATM    2  C10 UNL     1       3.053  -0.431  -0.441  1.00  0.00    -0.008 A 
HETATM    3  C11 UNL     1       4.223   0.290  -0.184  1.00  0.00    -0.020 A 
HETATM    4  C12 UNL     1       4.130   1.492   0.520  1.00  0.00     0.023 A 
HETATM    5  C13 UNL     1       2.901   1.966   0.986  1.00  0.00     0.130 A 
HETATM    6  C14 UNL     1       1.762   1.199   0.727  1.00  0.00     0.023 A 
HETATM    7  O1  UNL     1       2.810   3.129   1.683  1.00  0.00    -0.190 OA
HETATM    8  C15 UNL     1       5.558  -0.218  -0.670  1.00  0.00     0.031 C 
ENDROOT
BRANCH   1   9
HETATM    9  C2  UNL     1       0.505  -0.811  -0.246  1.00  0.00     0.019 C 
HETATM   10  C3  UNL     1       0.370  -1.554   1.115  1.00  0.00     0.004 C 
HETATM   11  C4  UNL     1      -1.129  -1.673   1.228  1.00  0.00     0.000 C 
HETATM   12  C5  UNL     1      -1.429  -0.283   0.662  1.00  0.00     0.000 C 
HETATM   13  C6  UNL     1      -0.874  -0.096  -0.831  1.00  0.00     0.004 C 
HETATM   14  C7  UNL     1      -1.703   1.309  -0.732  1.00  0.00     0.000 C 
HETATM   15  C8  UNL     1       0.091   0.794  -1.759  1.00  0.00     0.000 C 
HETATM   16  C9  UNL     1       0.683  -2.000  -1.254  1.00  0.00     0.004 C 
ENDBRANCH   1   9
TORSDOF 1
