REMARK  2 active torsions:
REMARK  status: ('A' for Active; 'I' for Inactive)
REMARK    1  A    between atoms: C3_3  and  C7_9 
REMARK    2  A    between atoms: C5_6  and  C6_7 
ROOT
HETATM    1  C1  UNL     1       0.939   0.688  -0.236  1.00  0.00     0.065 A 
HETATM    2  C2  UNL     1       0.473  -0.658   0.159  1.00  0.00     0.198 A 
HETATM    3  C3  UNL     1      -0.983  -0.891  -0.003  1.00  0.00     0.071 A 
HETATM    4  C4  UNL     1      -1.748   0.121  -0.459  1.00  0.00     0.124 A 
HETATM    5  O1  UNL     1      -1.285   1.357  -0.805  1.00  0.00    -0.307 OA
HETATM    6  C5  UNL     1       0.053   1.596  -0.688  1.00  0.00     0.114 A 
HETATM    7  O4  UNL     1       1.244  -1.519   0.571  1.00  0.00    -0.287 OA
ENDROOT
BRANCH   3   8
HETATM    8  C7  UNL     1      -1.565  -2.237   0.371  1.00  0.00     0.179 C 
HETATM    9  C8  UNL     1      -1.875  -2.324   1.861  1.00  0.00     0.041 C 
HETATM   10  O3  UNL     1      -2.745  -2.490  -0.370  1.00  0.00    -0.218 OA
ENDBRANCH   3   8
BRANCH   6  11
HETATM   11  C6  UNL     1       0.513   2.974  -1.105  1.00  0.00     0.233 C 
HETATM   12  O2  UNL     1      -0.098   3.969  -0.294  1.00  0.00    -0.213 OA
ENDBRANCH   6  11
TORSDOF 2
