REMARK  1 active torsions:
REMARK  status: ('A' for Active; 'I' for Inactive)
REMARK    1  A    between atoms: C15_16  and  O1_18 
ROOT
HETATM    1  C1  UNL     1      -0.107  -2.444   0.512  1.00  0.00     0.119 A 
HETATM    2  C2  UNL     1       1.116  -1.783   0.485  1.00  0.00     0.119 A 
HETATM    3  C3  UNL     1       1.210  -0.435   0.125  1.00  0.00     0.024 A 
HETATM    4  C4  UNL     1       0.000   0.246  -0.116  1.00  0.00    -0.002 A 
HETATM    5  C5  UNL     1      -1.237  -0.412  -0.036  1.00  0.00    -0.020 A 
HETATM    6  C6  UNL     1      -1.301  -1.782   0.252  1.00  0.00     0.022 A 
HETATM    7  C7  UNL     1      -2.506   0.388  -0.165  1.00  0.00     0.052 C 
HETATM    8  C8  UNL     1      -2.247   1.795   0.381  1.00  0.00     0.125 C 
HETATM    9  N1  UNL     1      -1.191   2.427  -0.398  1.00  0.00    -0.292 NA
HETATM   10  C9  UNL     1       0.100   1.735  -0.374  1.00  0.00     0.124 C 
HETATM   11  C10 UNL     1       1.040   2.314   0.697  1.00  0.00     0.055 C 
HETATM   12  C11 UNL     1       2.397   1.678   0.492  1.00  0.00    -0.018 C 
HETATM   13  C12 UNL     1       3.566   2.429   0.605  1.00  0.00    -0.002 C 
HETATM   14  C13 UNL     1       4.795   1.837   0.320  1.00  0.00     0.029 C 
HETATM   15  C14 UNL     1       4.873   0.524  -0.150  1.00  0.00     0.153 C 
HETATM   16  C15 UNL     1       3.694  -0.212  -0.362  1.00  0.00     0.119 C 
HETATM   17  C16 UNL     1       2.478   0.331   0.099  1.00  0.00     0.022 C 
HETATM   18  O2  UNL     1       6.087   0.001  -0.471  1.00  0.00    -0.188 OA
HETATM   19  O3  UNL     1       2.103  -2.668   0.892  1.00  0.00    -0.300 OA
HETATM   20  C18 UNL     1       1.488  -3.946   1.093  1.00  0.00     0.304 A 
HETATM   21  O4  UNL     1       0.086  -3.759   0.883  1.00  0.00    -0.300 OA
ENDROOT
BRANCH  16  22
HETATM   22  O1  UNL     1       3.779  -1.501  -0.817  1.00  0.00    -0.326 OA
HETATM   23  C17 UNL     1       3.788  -1.603  -2.223  1.00  0.00     0.181 C 
ENDBRANCH  16  22
TORSDOF 1
