REMARK  0 active torsions:
REMARK  status: ('A' for Active; 'I' for Inactive)
ROOT
HETATM    1  C1  UNL     1      -0.515   2.603   0.052  1.00  0.00     0.119 A 
HETATM    2  C2  UNL     1      -0.542   1.195   0.189  1.00  0.00     0.119 A 
HETATM    3  C3  UNL     1       0.589   0.412   0.064  1.00  0.00     0.028 C 
HETATM    4  C4  UNL     1       1.832   1.127  -0.051  1.00  0.00     0.023 A 
HETATM    5  C5  UNL     1       1.853   2.534  -0.205  1.00  0.00     0.005 A 
HETATM    6  C6  UNL     1       0.644   3.297  -0.172  1.00  0.00     0.026 C 
HETATM    7  C7  UNL     1       3.107   3.180  -0.362  1.00  0.00     0.021 A 
HETATM    8  C8  UNL     1       4.247   2.408  -0.303  1.00  0.00     0.099 A 
HETATM    9  N1  UNL     1       4.236   1.070  -0.094  1.00  0.00    -0.241 NA
HETATM   10  C9  UNL     1       3.079   0.443   0.037  1.00  0.00     0.120 A 
HETATM   11  C10 UNL     1       3.099  -1.027   0.306  1.00  0.00     0.213 C 
HETATM   12  C11 UNL     1       1.813  -1.762   0.236  1.00  0.00     0.043 A 
HETATM   13  C12 UNL     1       1.848  -3.167   0.311  1.00  0.00     0.005 A 
HETATM   14  C13 UNL     1       0.690  -3.936   0.178  1.00  0.00     0.026 A 
HETATM   15  C14 UNL     1      -0.491  -3.247  -0.076  1.00  0.00     0.119 A 
HETATM   16  C15 UNL     1      -0.532  -1.855  -0.148  1.00  0.00     0.119 A 
HETATM   17  C16 UNL     1       0.598  -1.057   0.070  1.00  0.00     0.029 A 
HETATM   18  O1  UNL     1      -1.826  -1.481  -0.486  1.00  0.00    -0.300 OA
HETATM   19  C17 UNL     1      -2.628  -2.666  -0.545  1.00  0.00     0.304 A 
HETATM   20  O2  UNL     1      -1.746  -3.765  -0.308  1.00  0.00    -0.300 OA
HETATM   21  O3  UNL     1       4.157  -1.618   0.512  1.00  0.00    -0.285 OA
HETATM   22  O4  UNL     1      -1.855   0.819   0.435  1.00  0.00    -0.300 OA
HETATM   23  C18 UNL     1      -2.678   1.988   0.332  1.00  0.00     0.304 A 
HETATM   24  O5  UNL     1      -1.796   3.100   0.162  1.00  0.00    -0.300 OA
ENDROOT
TORSDOF 0
