REMARK  16 active torsions:
REMARK  status: ('A' for Active; 'I' for Inactive)
REMARK    1  A    between atoms: C1_2  and  C25_39 
REMARK    2  A    between atoms: C2_3  and  O13_35 
REMARK    3  A    between atoms: C3_4  and  O11_31 
REMARK    4  A    between atoms: C4_5  and  O9_27 
REMARK    5  A    between atoms: C5_6  and  O2_7 
REMARK    6  A    between atoms: O2_7  and  C6_8 
REMARK    7  A    between atoms: C11_14  and  O7_23 
REMARK    8  A    between atoms: C13_16  and  C14_18 
REMARK    9  A    between atoms: C14_18  and  O5_19 
REMARK   10  A    between atoms: O5_19  and  C15_20 
REMARK   11  A    between atoms: O7_23  and  C17_24 
REMARK   12  A    between atoms: O9_27  and  C19_28 
REMARK   13  A    between atoms: O11_31  and  C21_32 
REMARK   14  A    between atoms: O13_35  and  C23_36 
REMARK   15  A    between atoms: C25_39  and  O15_40 
REMARK   16  A    between atoms: O15_40  and  C26_41 
ROOT
HETATM    1  O1  UNL     1       6.282   0.743   1.300  1.00  0.00    -0.326 OA
HETATM    2  C1  UNL     1       7.600   1.204   1.436  1.00  0.00     0.178 C 
HETATM    3  C2  UNL     1       7.752   2.582   0.777  1.00  0.00     0.184 C 
HETATM    4  C3  UNL     1       7.277   2.535  -0.678  1.00  0.00     0.187 C 
HETATM    5  C4  UNL     1       5.862   1.960  -0.720  1.00  0.00     0.210 C 
HETATM    6  C5  UNL     1       5.900   0.602  -0.049  1.00  0.00     0.269 C 
ENDROOT
BRANCH   6   7
HETATM    7  O2  UNL     1       4.600   0.049  -0.000  1.00  0.00    -0.304 OA
BRANCH   7   8
HETATM    8  C6  UNL     1       4.583  -1.362  -0.069  1.00  0.00     0.244 C 
HETATM    9  C7  UNL     1       3.221  -1.891   0.346  1.00  0.00     0.093 C 
HETATM   10  C8  UNL     1       2.103  -1.350  -0.569  1.00  0.00     0.062 C 
HETATM   11  C13 UNL     1       3.028  -3.403   0.296  1.00  0.00     0.153 A 
HETATM   12  C9  UNL     1       2.604  -1.340  -1.990  1.00  0.00     0.003 C 
HETATM   13  C11 UNL     1       0.972  -2.390  -0.430  1.00  0.00     0.158 C 
HETATM   14  C10 UNL     1       3.888  -1.528  -2.321  1.00  0.00     0.115 C 
HETATM   15  O3  UNL     1       4.889  -1.676  -1.409  1.00  0.00    -0.304 OA
HETATM   16  C12 UNL     1       1.690  -3.708  -0.131  1.00  0.00     0.171 A 
HETATM   17  O4  UNL     1       1.849  -3.899   1.252  1.00  0.00    -0.351 OA
BRANCH  13  18
HETATM   18  O7  UNL     1       0.062  -2.033   0.585  1.00  0.00    -0.301 OA
BRANCH  18  19
HETATM   19  C17 UNL     1      -0.878  -1.100   0.276  1.00  0.00     0.272 C 
HETATM   20  C18 UNL     1      -1.796  -0.865   1.458  1.00  0.00     0.106 C 
HETATM   21  O8  UNL     1      -0.976  -0.545  -0.795  1.00  0.00    -0.264 OA
ENDBRANCH  18  19
ENDBRANCH  13  18
BRANCH  11  22
HETATM   22  C14 UNL     1       4.166  -4.408   0.278  1.00  0.00     0.181 C 
BRANCH  22  23
HETATM   23  O5  UNL     1       3.738  -5.719  -0.029  1.00  0.00    -0.299 OA
BRANCH  23  24
HETATM   24  C15 UNL     1       4.711  -6.654  -0.202  1.00  0.00     0.273 C 
HETATM   25  C16 UNL     1       4.096  -7.985  -0.582  1.00  0.00     0.106 C 
HETATM   26  O6  UNL     1       5.897  -6.446  -0.084  1.00  0.00    -0.264 OA
ENDBRANCH  23  24
ENDBRANCH  22  23
ENDBRANCH  11  22
ENDBRANCH   7   8
ENDBRANCH   6   7
BRANCH   5  27
HETATM   27  O9  UNL     1       5.458   1.822  -2.054  1.00  0.00    -0.296 OA
BRANCH  27  28
HETATM   28  C19 UNL     1       4.165   2.092  -2.380  1.00  0.00     0.273 C 
HETATM   29  C20 UNL     1       3.961   1.930  -3.873  1.00  0.00     0.106 C 
HETATM   30  O10 UNL     1       3.300   2.429  -1.603  1.00  0.00    -0.264 OA
ENDBRANCH  27  28
ENDBRANCH   5  27
BRANCH   2  31
HETATM   31  C25 UNL     1       7.934   1.207   2.929  1.00  0.00     0.184 C 
BRANCH  31  32
HETATM   32  O15 UNL     1       9.326   1.169   3.111  1.00  0.00    -0.299 OA
BRANCH  32  33
HETATM   33  C26 UNL     1       9.772   0.944   4.376  1.00  0.00     0.273 C 
HETATM   34  C27 UNL     1      11.279   0.787   4.384  1.00  0.00     0.106 C 
HETATM   35  O16 UNL     1       9.065   0.852   5.355  1.00  0.00    -0.264 OA
ENDBRANCH  32  33
ENDBRANCH  31  32
ENDBRANCH   2  31
BRANCH   4  36
HETATM   36  O11 UNL     1       7.291   3.826  -1.222  1.00  0.00    -0.299 OA
BRANCH  36  37
HETATM   37  C21 UNL     1       7.636   3.977  -2.531  1.00  0.00     0.273 C 
HETATM   38  C22 UNL     1       7.554   5.436  -2.929  1.00  0.00     0.106 C 
HETATM   39  O12 UNL     1       7.957   3.080  -3.278  1.00  0.00    -0.264 OA
ENDBRANCH  36  37
ENDBRANCH   4  36
BRANCH   3  40
HETATM   40  O13 UNL     1       9.101   2.960   0.817  1.00  0.00    -0.299 OA
BRANCH  40  41
HETATM   41  C23 UNL     1       9.414   4.269   1.018  1.00  0.00     0.273 C 
HETATM   42  C24 UNL     1      10.918   4.449   1.014  1.00  0.00     0.106 C 
HETATM   43  O14 UNL     1       8.615   5.165   1.173  1.00  0.00    -0.264 OA
ENDBRANCH  40  41
ENDBRANCH   3  40
TORSDOF 16
