REMARK  7 active torsions:
REMARK  status: ('A' for Active; 'I' for Inactive)
REMARK    1  A    between atoms: C1_1  and  O6_12 
REMARK    2  A    between atoms: C2_3  and  C6_10 
REMARK    3  A    between atoms: O6_12  and  C7_13 
REMARK    4  A    between atoms: C7_13  and  C8_14 
REMARK    5  A    between atoms: C8_14  and  C9_15 
REMARK    6  A    between atoms: C9_15  and  C10_16 
REMARK    7  A    between atoms: C10_16  and  C11_17 
ROOT
HETATM    1  C1  UNL     1       2.053  -1.597   0.806  1.00  0.00     0.270 C 
HETATM    2  O1  UNL     1       3.379  -1.575   0.323  1.00  0.00    -0.326 OA
HETATM    3  C2  UNL     1       4.257  -2.323   1.126  1.00  0.00     0.184 C 
HETATM    4  C3  UNL     1       3.811  -3.781   1.164  1.00  0.00     0.215 C 
HETATM    5  C4  UNL     1       2.389  -3.878   1.675  1.00  0.00     0.220 C 
HETATM    6  C5  UNL     1       1.518  -3.010   0.798  1.00  0.00     0.241 C 
HETATM    7  O2  UNL     1       0.207  -3.016   1.302  1.00  0.00    -0.215 OA
HETATM    8  O3  UNL     1       1.951  -5.211   1.607  1.00  0.00    -0.218 OA
HETATM    9  O4  UNL     1       4.625  -4.543   2.021  1.00  0.00    -0.218 OA
ENDROOT
BRANCH   1  10
HETATM   10  O6  UNL     1       1.286  -0.856  -0.118  1.00  0.00    -0.329 OA
BRANCH  10  11
HETATM   11  C7  UNL     1       1.274   0.527   0.133  1.00  0.00     0.145 C 
BRANCH  11  12
HETATM   12  C8  UNL     1       0.403   1.195  -0.931  1.00  0.00     0.032 C 
BRANCH  12  13
HETATM   13  C9  UNL     1       0.079   2.660  -0.598  1.00  0.00     0.005 C 
BRANCH  13  14
HETATM   14  C10 UNL     1      -0.815   3.300  -1.673  1.00  0.00     0.033 C 
BRANCH  14  15
HETATM   15  C11 UNL     1      -1.326   4.689  -1.288  1.00  0.00     0.152 C 
HETATM   16  O7  UNL     1      -0.237   5.558  -1.089  1.00  0.00    -0.224 OA
HETATM   17  C12 UNL     1      -2.235   5.282  -2.361  1.00  0.00     0.036 C 
ENDBRANCH  14  15
ENDBRANCH  13  14
ENDBRANCH  12  13
ENDBRANCH  11  12
ENDBRANCH  10  11
ENDBRANCH   1  10
BRANCH   3  18
HETATM   18  C6  UNL     1       5.665  -2.192   0.561  1.00  0.00     0.214 C 
HETATM   19  O5  UNL     1       6.082  -0.843   0.617  1.00  0.00    -0.218 OA
ENDBRANCH   3  18
TORSDOF 7
