REMARK  3 active torsions:
REMARK  status: ('A' for Active; 'I' for Inactive)
REMARK    1  A    between atoms: C4_5  and  C7_8 
REMARK    2  A    between atoms: C8_9  and  C9_10 
REMARK    3  A    between atoms: C10_11  and  C11_12 
ROOT
HETATM    1  O1  UNL     1      -2.435  -2.095   0.057  1.00  0.00    -0.188 OA
HETATM    2  C1  UNL     1      -1.248  -1.433   0.025  1.00  0.00     0.156 A 
HETATM    3  C2  UNL     1      -1.193  -0.037   0.154  1.00  0.00     0.156 A 
HETATM    4  C3  UNL     1       0.050   0.600   0.120  1.00  0.00     0.029 A 
HETATM    5  C4  UNL     1       1.259  -0.098  -0.035  1.00  0.00     0.002 A 
HETATM    6  C5  UNL     1       1.184  -1.491  -0.169  1.00  0.00     0.002 A 
HETATM    7  C6  UNL     1      -0.052  -2.137  -0.137  1.00  0.00     0.029 A 
HETATM    8  O4  UNL     1      -2.329   0.693   0.315  1.00  0.00    -0.188 OA
ENDROOT
BRANCH   5   9
HETATM    9  C7  UNL     1       2.519   0.662  -0.042  1.00  0.00     0.002 C 
HETATM   10  C8  UNL     1       3.767   0.136  -0.114  1.00  0.00     0.028 C 
BRANCH  10  11
HETATM   11  C9  UNL     1       4.976   0.973  -0.076  1.00  0.00     0.134 C 
HETATM   12  C10 UNL     1       6.175   0.331  -0.106  1.00  0.00     0.065 C 
HETATM   13  O3  UNL     1       4.871   2.328   0.011  1.00  0.00    -0.190 OA
BRANCH  12  14
HETATM   14  C11 UNL     1       7.493   1.003  -0.054  1.00  0.00     0.176 C 
HETATM   15  C12 UNL     1       8.703   0.088  -0.054  1.00  0.00     0.077 C 
HETATM   16  O2  UNL     1       7.623   2.221  -0.011  1.00  0.00    -0.291 OA
ENDBRANCH  12  14
ENDBRANCH  10  11
ENDBRANCH   5   9
TORSDOF 3
