REMARK  4 active torsions:
REMARK  status: ('A' for Active; 'I' for Inactive)
REMARK    1  A    between atoms: C8_8  and  O2_15 
REMARK    2  A    between atoms: C11_11  and  O1_13 
REMARK    3  A    between atoms: O2_15  and  C14_16 
REMARK    4  A    between atoms: C14_16  and  C15_17 
ROOT
HETATM    1  C1  UNL     1       1.260   0.612  -0.084  1.00  0.00     0.009 C 
HETATM    2  C2  UNL     1       0.111  -0.426   0.113  1.00  0.00     0.049 C 
HETATM    3  C3  UNL     1       0.307  -1.304   1.386  1.00  0.00     0.006 C 
HETATM    4  C4  UNL     1       1.488  -2.252   1.058  1.00  0.00     0.005 C 
HETATM    5  C5  UNL     1       1.631  -2.155  -0.474  1.00  0.00     0.050 C 
HETATM    6  C6  UNL     1       2.813  -1.224  -0.829  1.00  0.00     0.133 C 
HETATM    7  C7  UNL     1       2.691   0.064   0.006  1.00  0.00     0.056 C 
HETATM    8  C8  UNL     1       3.566   1.200  -0.516  1.00  0.00     0.129 C 
HETATM    9  C9  UNL     1       2.834   1.451  -1.832  1.00  0.00     0.055 C 
HETATM   10  C10 UNL     1       1.341   1.393  -1.418  1.00  0.00     0.005 C 
HETATM   11  C11 UNL     1       3.172   0.386  -2.884  1.00  0.00     0.120 C 
HETATM   12  C12 UNL     1       2.942  -1.038  -2.357  1.00  0.00     0.060 C 
HETATM   13  O4  UNL     1       3.997  -1.863  -0.412  1.00  0.00    -0.226 OA
HETATM   14  C21 UNL     1       0.264  -1.567  -0.902  1.00  0.00     0.103 C 
HETATM   15  N1  UNL     1      -0.842  -2.531  -0.838  1.00  0.00    -0.297 NA
HETATM   16  C22 UNL     1      -1.131  -3.134   0.464  1.00  0.00     0.120 C 
HETATM   17  C23 UNL     1      -0.960  -2.157   1.649  1.00  0.00     0.022 C 
HETATM   18  C24 UNL     1      -2.191  -1.237   1.795  1.00  0.00     0.004 C 
HETATM   19  C25 UNL     1      -2.472  -0.441   0.524  1.00  0.00     0.033 C 
HETATM   20  C26 UNL     1      -1.231   0.331   0.098  1.00  0.00     0.154 C 
HETATM   21  O5  UNL     1      -1.493   0.875  -1.174  1.00  0.00    -0.223 OA
HETATM   22  C27 UNL     1      -0.852  -2.942   2.978  1.00  0.00     0.002 C 
ENDROOT
BRANCH   8  23
HETATM   23  O2  UNL     1       4.880   0.773  -0.667  1.00  0.00    -0.301 OA
BRANCH  23  24
HETATM   24  C14 UNL     1       5.948   1.299   0.002  1.00  0.00     0.296 C 
HETATM   25  O3  UNL     1       7.057   0.856  -0.290  1.00  0.00    -0.259 OA
BRANCH  24  26
HETATM   26  C15 UNL     1       5.962   2.352   1.071  1.00  0.00     0.063 A 
HETATM   27  C16 UNL     1       7.050   3.237   1.109  1.00  0.00     0.005 A 
HETATM   28  C17 UNL     1       7.118   4.246   2.072  1.00  0.00     0.000 A 
HETATM   29  C18 UNL     1       6.099   4.378   3.015  1.00  0.00     0.000 A 
HETATM   30  C19 UNL     1       5.027   3.482   3.005  1.00  0.00     0.000 A 
HETATM   31  C20 UNL     1       4.965   2.465   2.050  1.00  0.00     0.005 A 
ENDBRANCH  24  26
ENDBRANCH  23  24
ENDBRANCH   8  23
BRANCH  11  32
HETATM   32  O1  UNL     1       4.503   0.560  -3.300  1.00  0.00    -0.354 OA
HETATM   33  C13 UNL     1       4.745   0.140  -4.625  1.00  0.00     0.174 C 
ENDBRANCH  11  32
TORSDOF 4
