REMARK  9 active torsions:
REMARK  status: ('A' for Active; 'I' for Inactive)
REMARK    1  A    between atoms: C1_1  and  C27_34 
REMARK    2  A    between atoms: C2_2  and  C19_24 
REMARK    3  A    between atoms: C6_7  and  C7_8 
REMARK    4  A    between atoms: C16_17  and  O2_18 
REMARK    5  A    between atoms: C19_24  and  C20_25 
REMARK    6  A    between atoms: C23_28  and  O6_31 
REMARK       I    between atoms: C27_34  and  N1_35 
REMARK    7  A    between atoms: C28_36  and  N2_40 
REMARK       I    between atoms: N2_40  and  C32_41 
REMARK    8  A    between atoms: C32_41  and  C33_42 
REMARK    9  A    between atoms: C33_42  and  C34_43 
ROOT
HETATM    1  C1  UNL     1       4.808  -0.490  -0.341  1.00  0.00     0.052 C 
HETATM    2  C2  UNL     1       3.489  -0.141  -1.107  1.00  0.00     0.201 C 
HETATM    3  C3  UNL     1       2.393  -1.254  -1.192  1.00  0.00     0.058 C 
HETATM    4  C4  UNL     1       2.602  -2.570  -0.704  1.00  0.00     0.097 C 
HETATM    5  O1  UNL     1       3.820  -3.077  -0.343  1.00  0.00    -0.330 OA
HETATM    6  C5  UNL     1       4.827  -2.857  -1.293  1.00  0.00     0.157 C 
HETATM    7  C6  UNL     1       5.664  -1.649  -0.893  1.00  0.00     0.078 C 
HETATM    8  C13 UNL     1       1.531  -3.473  -0.620  1.00  0.00     0.050 C 
HETATM    9  C14 UNL     1       0.291  -3.096  -1.103  1.00  0.00     0.123 A 
HETATM   10  C15 UNL     1       0.132  -1.876  -1.742  1.00  0.00     0.141 A 
HETATM   11  C16 UNL     1       1.157  -0.925  -1.820  1.00  0.00     0.119 C 
HETATM   12  O3  UNL     1      -1.181  -1.811  -2.182  1.00  0.00    -0.298 OA
HETATM   13  C18 UNL     1      -1.853  -3.021  -1.818  1.00  0.00     0.304 A 
HETATM   14  O4  UNL     1      -0.880  -3.825  -1.149  1.00  0.00    -0.299 OA
HETATM   15  O5  UNL     1       3.814   0.068  -2.463  1.00  0.00    -0.214 OA
ENDROOT
BRANCH   1  16
HETATM   16  C27 UNL     1       5.761   0.580   0.239  1.00  0.00     0.253 C 
HETATM   17  N1  UNL     1       6.379   1.467  -0.612  1.00  0.00    -0.299 N 
HETATM   18  C28 UNL     1       7.041   2.672  -0.118  1.00  0.00     0.192 C 
HETATM   19  C31 UNL     1       6.623   1.335  -2.038  1.00  0.00     0.106 C 
HETATM   20  C29 UNL     1       7.566   3.406  -1.366  1.00  0.00     0.050 C 
HETATM   21  C30 UNL     1       6.739   2.792  -2.501  1.00  0.00     0.028 C 
HETATM   22  O9  UNL     1       5.950   0.664   1.434  1.00  0.00    -0.268 OA
BRANCH  18  23
HETATM   23  N2  UNL     1       8.083   2.256   0.823  1.00  0.00    -0.217 NA
HETATM   24  C32 UNL     1       9.097   3.086   1.217  1.00  0.00     0.253 C 
HETATM   25  O8  UNL     1       9.152   4.248   0.891  1.00  0.00    -0.271 OA
BRANCH  24  26
HETATM   26  C33 UNL     1      10.209   2.414   2.012  1.00  0.00     0.081 C 
HETATM   27  C36 UNL     1       9.698   1.541   3.167  1.00  0.00     0.010 C 
BRANCH  26  28
HETATM   28  C34 UNL     1      11.186   1.677   1.071  1.00  0.00     0.009 C 
HETATM   29  C35 UNL     1      10.659   0.360   0.488  1.00  0.00     0.001 C 
ENDBRANCH  26  28
ENDBRANCH  24  26
ENDBRANCH  18  23
ENDBRANCH   1  16
BRANCH   2  30
HETATM   30  C19 UNL     1       2.829   1.171  -0.590  1.00  0.00     0.210 C 
HETATM   31  O7  UNL     1       3.708   2.081   0.034  1.00  0.00    -0.215 OA
BRANCH  30  32
HETATM   32  C20 UNL     1       1.638   1.034   0.339  1.00  0.00     0.011 A 
HETATM   33  C21 UNL     1       0.539   1.886   0.191  1.00  0.00     0.000 A 
HETATM   34  C22 UNL     1      -0.587   1.760   1.005  1.00  0.00     0.024 A 
HETATM   35  C23 UNL     1      -0.673   0.806   2.027  1.00  0.00     0.094 A 
HETATM   36  C24 UNL     1       0.443  -0.030   2.175  1.00  0.00     0.024 A 
HETATM   37  C25 UNL     1       1.578   0.094   1.371  1.00  0.00     0.000 A 
BRANCH  35  38
HETATM   38  O6  UNL     1      -1.834   0.721   2.754  1.00  0.00    -0.328 OA
HETATM   39  C26 UNL     1      -2.022  -0.402   3.582  1.00  0.00     0.181 C 
ENDBRANCH  35  38
ENDBRANCH  30  32
ENDBRANCH   2  30
BRANCH   7  40
HETATM   40  C7  UNL     1       6.738  -2.103   0.091  1.00  0.00    -0.016 A 
HETATM   41  C8  UNL     1       8.079  -2.182  -0.308  1.00  0.00    -0.004 A 
HETATM   42  C9  UNL     1       9.068  -2.644   0.561  1.00  0.00    -0.000 A 
HETATM   43  C10 UNL     1       8.740  -3.017   1.865  1.00  0.00    -0.000 A 
HETATM   44  C11 UNL     1       7.410  -2.947   2.281  1.00  0.00    -0.000 A 
HETATM   45  C12 UNL     1       6.424  -2.507   1.396  1.00  0.00    -0.004 A 
ENDBRANCH   7  40
BRANCH  11  46
HETATM   46  O2  UNL     1       1.037   0.251  -2.518  1.00  0.00    -0.326 OA
HETATM   47  C17 UNL     1      -0.074   0.484  -3.346  1.00  0.00     0.181 C 
ENDBRANCH  11  46
TORSDOF 9
