REMARK  2 active torsions:
REMARK  status: ('A' for Active; 'I' for Inactive)
REMARK    1  A    between atoms: C2_2  and  C38_43 
REMARK    2  A    between atoms: C23_24  and  C24_25 
ROOT
HETATM    1  C1  UNL     1       0.041   1.898  -0.024  1.00  0.00    -0.007 C 
HETATM    2  C2  UNL     1      -1.293   2.032   0.188  1.00  0.00     0.005 C 
HETATM    3  C3  UNL     1      -2.191   0.912  -0.295  1.00  0.00     0.152 C 
HETATM    4  C4  UNL     1      -1.585  -0.467  -0.499  1.00  0.00     0.152 C 
HETATM    5  C5  UNL     1      -0.237  -0.603  -0.659  1.00  0.00     0.003 C 
HETATM    6  C6  UNL     1       0.548   0.667  -0.688  1.00  0.00    -0.022 C 
HETATM    7  C7  UNL     1       1.822   0.647  -1.474  1.00  0.00     0.059 C 
HETATM    8  C8  UNL     1       2.595  -0.637  -1.619  1.00  0.00     0.151 C 
HETATM    9  C9  UNL     1       2.073  -1.759  -0.711  1.00  0.00     0.127 C 
HETATM   10  C10 UNL     1       0.513  -1.932  -0.880  1.00  0.00     0.046 C 
HETATM   11  C11 UNL     1      -0.010  -2.960   0.162  1.00  0.00     0.006 C 
HETATM   12  C12 UNL     1       1.006  -4.006   0.637  1.00  0.00     0.001 C 
HETATM   13  C13 UNL     1       1.971  -4.341  -0.496  1.00  0.00     0.002 C 
HETATM   14  C14 UNL     1       2.859  -3.123  -0.870  1.00  0.00     0.026 C 
HETATM   15  C15 UNL     1       3.386  -3.370  -2.308  1.00  0.00     0.002 C 
HETATM   16  C16 UNL     1       4.122  -3.250   0.032  1.00  0.00     0.002 C 
HETATM   17  C17 UNL     1       0.099  -2.339  -2.316  1.00  0.00     0.007 C 
HETATM   18  O1  UNL     1       2.213  -1.289   0.600  1.00  0.00    -0.331 OA
HETATM   19  C18 UNL     1       3.311  -0.534   0.924  1.00  0.00     0.112 A 
HETATM   20  C19 UNL     1       4.241  -0.123  -0.052  1.00  0.00     0.112 A 
HETATM   21  C20 UNL     1       5.411   0.591   0.292  1.00  0.00     0.008 A 
HETATM   22  C21 UNL     1       5.577   0.926   1.644  1.00  0.00     0.037 A 
HETATM   23  C22 UNL     1       4.663   0.509   2.616  1.00  0.00     0.001 A 
HETATM   24  C23 UNL     1       3.530  -0.226   2.275  1.00  0.00     0.002 A 
HETATM   25  C27 UNL     1       6.750   1.703   2.103  1.00  0.00     0.195 C 
HETATM   26  C28 UNL     1       7.843   1.888   1.130  1.00  0.00     0.034 C 
HETATM   27  C29 UNL     1       7.734   1.585  -0.176  1.00  0.00    -0.038 C 
HETATM   28  C30 UNL     1       6.419   1.076  -0.770  1.00  0.00     0.036 C 
HETATM   29  C31 UNL     1       6.847  -0.090  -1.691  1.00  0.00     0.008 C 
HETATM   30  C32 UNL     1       7.806   0.274  -2.834  1.00  0.00     0.001 C 
HETATM   31  C33 UNL     1       8.676   1.502  -2.560  1.00  0.00     0.004 C 
HETATM   32  C34 UNL     1       8.973   1.732  -1.066  1.00  0.00     0.016 C 
HETATM   33  C35 UNL     1       9.574   3.152  -0.941  1.00  0.00     0.004 C 
HETATM   34  C36 UNL     1      10.038   0.703  -0.620  1.00  0.00     0.004 C 
HETATM   35  C37 UNL     1       5.712   2.248  -1.486  1.00  0.00     0.009 C 
HETATM   36  O2  UNL     1       6.881   2.099   3.258  1.00  0.00    -0.287 OA
HETATM   37  O3  UNL     1       3.949  -0.392  -1.358  1.00  0.00    -0.329 OA
HETATM   38  O4  UNL     1      -2.473  -1.495  -0.524  1.00  0.00    -0.188 OA
HETATM   39  O5  UNL     1      -3.488   1.097  -0.415  1.00  0.00    -0.188 OA
ENDROOT
BRANCH   2  40
HETATM   40  C38 UNL     1      -1.912   3.269   0.804  1.00  0.00     0.024 C 
HETATM   41  C39 UNL     1      -1.118   3.811   2.004  1.00  0.00     0.005 C 
HETATM   42  C40 UNL     1      -2.097   4.351  -0.271  1.00  0.00     0.005 C 
ENDBRANCH   2  40
BRANCH  24  43
HETATM   43  C24 UNL     1       2.560  -0.686   3.354  1.00  0.00     0.024 C 
HETATM   44  C25 UNL     1       3.194  -1.806   4.194  1.00  0.00     0.005 C 
HETATM   45  C26 UNL     1       2.077   0.476   4.239  1.00  0.00     0.005 C 
ENDBRANCH  24  43
TORSDOF 2
