REMARK  4 active torsions:
REMARK  status: ('A' for Active; 'I' for Inactive)
REMARK    1  A    between atoms: C1_1  and  C6_10 
REMARK    2  A    between atoms: C1_1  and  C11_15 
REMARK    3  A    between atoms: C6_10  and  C7_11 
REMARK    4  A    between atoms: C11_15  and  C12_16 
ROOT
HETATM    1  C1  UNL     1       0.850   0.371  -0.267  1.00  0.00     0.123 A 
HETATM    2  C2  UNL     1      -0.285   0.400   0.773  1.00  0.00     0.207 A 
HETATM    3  C3  UNL     1      -1.454   1.073   0.157  1.00  0.00     0.194 A 
HETATM    4  C4  UNL     1      -1.167   1.454  -1.098  1.00  0.00     0.194 A 
HETATM    5  C5  UNL     1       0.217   1.098  -1.458  1.00  0.00     0.207 A 
HETATM    6  O1  UNL     1       0.699   1.399  -2.538  1.00  0.00    -0.289 OA
HETATM    7  O2  UNL     1      -1.985   2.103  -1.955  1.00  0.00    -0.185 OA
HETATM    8  O3  UNL     1      -2.649   1.285   0.753  1.00  0.00    -0.185 OA
HETATM    9  O4  UNL     1      -0.237  -0.058   1.904  1.00  0.00    -0.289 OA
ENDROOT
BRANCH   1  10
HETATM   10  C6  UNL     1       2.064   1.182   0.229  1.00  0.00     0.041 C 
BRANCH  10  11
HETATM   11  C7  UNL     1       2.874   0.520   1.316  1.00  0.00    -0.034 C 
HETATM   12  C8  UNL     1       4.105   0.894   1.709  1.00  0.00    -0.048 C 
HETATM   13  C9  UNL     1       4.839   0.152   2.801  1.00  0.00     0.026 C 
HETATM   14  C10 UNL     1       4.862   2.063   1.126  1.00  0.00     0.026 C 
ENDBRANCH  10  11
ENDBRANCH   1  10
BRANCH   1  15
HETATM   15  C11 UNL     1       1.166  -1.091  -0.644  1.00  0.00     0.041 C 
BRANCH  15  16
HETATM   16  C12 UNL     1       2.413  -1.236  -1.481  1.00  0.00    -0.034 C 
HETATM   17  C13 UNL     1       3.408  -2.128  -1.319  1.00  0.00    -0.048 C 
HETATM   18  C14 UNL     1       4.617  -2.115  -2.228  1.00  0.00     0.026 C 
HETATM   19  C15 UNL     1       3.449  -3.204  -0.260  1.00  0.00     0.026 C 
ENDBRANCH  15  16
ENDBRANCH   1  15
TORSDOF 4
