REMARK  0 active torsions:
REMARK  status: ('A' for Active; 'I' for Inactive)
ROOT
HETATM    1  C1  UNL     1      -1.567   2.506   0.494  1.00  0.00     0.000 C 
HETATM    2  C2  UNL     1      -2.018   1.072   0.876  1.00  0.00     0.004 C 
HETATM    3  C3  UNL     1      -0.774   0.227   1.129  1.00  0.00     0.041 C 
HETATM    4  C4  UNL     1      -0.786  -1.292   1.019  1.00  0.00     0.280 C 
HETATM    5  C5  UNL     1       0.570  -1.905   0.645  1.00  0.00     0.025 A 
HETATM    6  C6  UNL     1       1.769  -1.237   0.288  1.00  0.00     0.057 A 
HETATM    7  C7  UNL     1       2.083   0.255   0.370  1.00  0.00     0.045 C 
HETATM    8  C8  UNL     1       1.628   1.137  -0.828  1.00  0.00     0.006 C 
HETATM    9  C9  UNL     1       0.961   2.478  -0.389  1.00  0.00     0.000 C 
HETATM   10  C10 UNL     1      -0.555   2.678  -0.674  1.00  0.00     0.000 C 
HETATM   11  C11 UNL     1       2.828   1.397  -1.763  1.00  0.00     0.000 C 
HETATM   12  N1  UNL     1       2.858  -1.917  -0.113  1.00  0.00    -0.249 NA
HETATM   13  C12 UNL     1       2.835  -3.250  -0.168  1.00  0.00     0.099 A 
HETATM   14  C13 UNL     1       1.720  -4.003   0.187  1.00  0.00     0.020 A 
HETATM   15  C14 UNL     1       0.585  -3.308   0.598  1.00  0.00     0.000 A 
HETATM   16  N2  UNL     1      -1.759  -1.732   0.015  1.00  0.00     0.341 N 
HETATM   17  C15 UNL     1      -3.059  -1.074   0.093  1.00  0.00     0.291 C 
HETATM   18  C16 UNL     1      -2.908   0.424  -0.194  1.00  0.00     0.038 C 
ENDROOT
TORSDOF 0
