REMARK  8 active torsions:
REMARK  status: ('A' for Active; 'I' for Inactive)
REMARK    1  A    between atoms: C2_2  and  C23_32 
REMARK    2  A    between atoms: C4_4  and  C13_19 
REMARK    3  A    between atoms: C6_6  and  C7_7 
REMARK    4  A    between atoms: C8_9  and  C12_16 
REMARK    5  A    between atoms: C13_19  and  C14_20 
REMARK    6  A    between atoms: C15_21  and  C16_22 
REMARK    7  A    between atoms: C16_22  and  C17_23 
REMARK    8  A    between atoms: C24_34  and  C28_41 
ROOT
HETATM    1  C1  UNL     1       2.513   1.793   0.746  1.00  0.00     0.118 C 
HETATM    2  C2  UNL     1       1.299   1.563   0.202  1.00  0.00     0.068 C 
HETATM    3  C3  UNL     1       0.963   0.150  -0.130  1.00  0.00     0.200 C 
HETATM    4  C4  UNL     1       1.659  -0.887   0.685  1.00  0.00     0.099 C 
HETATM    5  C5  UNL     1       2.878  -0.610   1.185  1.00  0.00     0.123 C 
HETATM    6  C6  UNL     1       3.545   0.695   0.824  1.00  0.00     0.126 C 
HETATM    7  O6  UNL     1       3.607  -1.477   1.934  1.00  0.00    -0.194 OA
HETATM    8  O9  UNL     1       0.102  -0.157  -0.943  1.00  0.00    -0.287 OA
HETATM    9  O15 UNL     1       2.930   3.030   1.131  1.00  0.00    -0.195 OA
ENDROOT
BRANCH   4  10
HETATM   10  C13 UNL     1       0.953  -2.173   1.015  1.00  0.00     0.200 C 
HETATM   11  O8  UNL     1      -0.177  -2.123   1.485  1.00  0.00    -0.286 OA
BRANCH  10  12
HETATM   12  C14 UNL     1       1.630  -3.479   0.800  1.00  0.00     0.038 C 
HETATM   13  C15 UNL     1       2.750  -3.661   0.076  1.00  0.00    -0.018 C 
BRANCH  13  14
HETATM   14  C16 UNL     1       3.391  -5.015  -0.107  1.00  0.00     0.052 C 
BRANCH  14  15
HETATM   15  C17 UNL     1       4.852  -4.997   0.278  1.00  0.00    -0.018 A 
HETATM   16  C18 UNL     1       5.830  -5.527  -0.570  1.00  0.00    -0.002 A 
HETATM   17  C19 UNL     1       7.180  -5.500  -0.214  1.00  0.00     0.027 A 
HETATM   18  C20 UNL     1       7.601  -4.930   0.991  1.00  0.00     0.131 A 
HETATM   19  C21 UNL     1       6.617  -4.431   1.850  1.00  0.00     0.027 A 
HETATM   20  O7  UNL     1       8.916  -4.870   1.325  1.00  0.00    -0.190 OA
HETATM   21  C22 UNL     1       5.265  -4.471   1.506  1.00  0.00    -0.002 A 
ENDBRANCH  14  15
ENDBRANCH  13  14
ENDBRANCH  10  12
ENDBRANCH   4  10
BRANCH   2  22
HETATM   22  C23 UNL     1       0.313   2.705   0.050  1.00  0.00     0.175 C 
HETATM   23  O10 UNL     1      -0.207   3.009   1.326  1.00  0.00    -0.347 OA
HETATM   24  C24 UNL     1      -0.964   4.191   1.357  1.00  0.00     0.181 C 
HETATM   25  C25 UNL     1      -2.128   4.109   0.376  1.00  0.00     0.214 C 
HETATM   26  C26 UNL     1      -1.635   3.759  -1.013  1.00  0.00     0.218 C 
HETATM   27  O13 UNL     1      -2.804   5.340   0.300  1.00  0.00    -0.218 OA
HETATM   28  C27 UNL     1      -0.843   2.473  -0.909  1.00  0.00     0.216 C 
HETATM   29  O12 UNL     1      -2.730   3.571  -1.873  1.00  0.00    -0.218 OA
HETATM   30  O11 UNL     1      -0.370   2.119  -2.183  1.00  0.00    -0.218 OA
BRANCH  24  31
HETATM   31  C28 UNL     1      -1.464   4.390   2.781  1.00  0.00     0.214 C 
HETATM   32  O14 UNL     1      -0.368   4.499   3.667  1.00  0.00    -0.218 OA
ENDBRANCH  24  31
ENDBRANCH   2  22
BRANCH   6  33
HETATM   33  C7  UNL     1       4.316   0.517  -0.491  1.00  0.00     0.161 C 
HETATM   34  O1  UNL     1       5.238  -0.518  -0.270  1.00  0.00    -0.350 OA
HETATM   35  C8  UNL     1       5.946  -0.894  -1.419  1.00  0.00     0.181 C 
HETATM   36  C9  UNL     1       6.774   0.285  -1.905  1.00  0.00     0.214 C 
HETATM   37  C10 UNL     1       5.859   1.452  -2.199  1.00  0.00     0.217 C 
HETATM   38  O4  UNL     1       7.468  -0.035  -3.086  1.00  0.00    -0.218 OA
HETATM   39  C11 UNL     1       5.034   1.774  -0.969  1.00  0.00     0.213 C 
HETATM   40  O3  UNL     1       6.627   2.572  -2.559  1.00  0.00    -0.218 OA
HETATM   41  O2  UNL     1       4.115   2.770  -1.351  1.00  0.00    -0.218 OA
BRANCH  35  42
HETATM   42  C12 UNL     1       6.796  -2.108  -1.072  1.00  0.00     0.214 C 
HETATM   43  O5  UNL     1       6.758  -3.051  -2.124  1.00  0.00    -0.218 OA
ENDBRANCH  35  42
ENDBRANCH   6  33
TORSDOF 8
