REMARK  2 active torsions:
REMARK  status: ('A' for Active; 'I' for Inactive)
REMARK    1  A    between atoms: C5_5  and  C8_8 
REMARK    2  A    between atoms: C9_10  and  C12_13 
ROOT
HETATM    1  C1  UNL     1      -0.652   1.417   1.169  1.00  0.00     0.007 C 
HETATM    2  C2  UNL     1      -1.465  -0.012   0.781  1.00  0.00     0.036 C 
HETATM    3  C3  UNL     1      -1.857  -0.606  -0.690  1.00  0.00     0.029 C 
HETATM    4  C4  UNL     1      -0.679  -0.589  -1.905  1.00  0.00    -0.023 C 
HETATM    5  C5  UNL     1       0.853   0.078  -1.768  1.00  0.00     0.034 C 
HETATM    6  C6  UNL     1       1.474   0.902  -0.811  1.00  0.00    -0.023 C 
HETATM    7  C7  UNL     1       0.950   1.692   0.553  1.00  0.00     0.026 C 
HETATM    8  C9  UNL     1      -0.116  -0.281   0.305  1.00  0.00     0.142 C 
HETATM    9  C10 UNL     1      -0.765   1.281  -0.642  1.00  0.00     0.034 C 
HETATM   10  C11 UNL     1      -1.465   2.283   0.273  1.00  0.00     0.003 C 
HETATM   11  O2  UNL     1       0.661  -0.318   1.534  1.00  0.00    -0.222 OA
HETATM   12  C15 UNL     1      -0.837   1.885   2.620  1.00  0.00     0.000 C 
ENDROOT
BRANCH   8  13
HETATM   13  C12 UNL     1       0.276  -1.774  -0.051  1.00  0.00    -0.017 C 
HETATM   14  C13 UNL     1       1.554  -2.110  -0.329  1.00  0.00    -0.007 C 
HETATM   15  C14 UNL     1      -0.596  -2.966   0.327  1.00  0.00     0.029 C 
ENDBRANCH   8  13
BRANCH   5  16
HETATM   16  C8  UNL     1       1.694  -0.305  -2.932  1.00  0.00     0.234 C 
HETATM   17  O1  UNL     1       2.859   0.029  -3.106  1.00  0.00    -0.283 OA
ENDBRANCH   5  16
TORSDOF 2
