REMARK  12 active torsions:
REMARK  status: ('A' for Active; 'I' for Inactive)
REMARK    1  A    between atoms: C2_2  and  C17_19 
REMARK    2  A    between atoms: C5_5  and  O1_7 
REMARK    3  A    between atoms: O1_7  and  C7_8 
REMARK    4  A    between atoms: C7_8  and  C8_9 
REMARK    5  A    between atoms: C9_10  and  C10_11 
REMARK    6  A    between atoms: C10_11  and  C11_12 
REMARK    7  A    between atoms: C11_12  and  C12_13 
REMARK    8  A    between atoms: C13_14  and  C14_15 
REMARK    9  A    between atoms: C17_19  and  C18_20 
REMARK   10  A    between atoms: C18_20  and  N1_21 
REMARK       I    between atoms: N1_21  and  C19_22 
REMARK   11  A    between atoms: C19_22  and  C20_23 
REMARK   12  A    between atoms: C21_24  and  S1_25 
ROOT
HETATM    1  C1  UNL     1       9.645  -0.012   0.210  1.00  0.00     0.000 A 
HETATM    2  C2  UNL     1      10.058  -0.711   1.349  1.00  0.00     0.010 A 
HETATM    3  C3  UNL     1       9.060  -1.188   2.204  1.00  0.00     0.000 A 
HETATM    4  C4  UNL     1       7.710  -0.958   1.935  1.00  0.00     0.024 A 
HETATM    5  C5  UNL     1       7.277  -0.258   0.802  1.00  0.00     0.095 A 
HETATM    6  C6  UNL     1       8.290   0.228  -0.040  1.00  0.00     0.024 A 
ENDROOT
BRANCH   2   7
HETATM    7  C17 UNL     1      11.512  -0.917   1.716  1.00  0.00     0.199 C 
HETATM    8  O6  UNL     1      12.377  -0.107   0.938  1.00  0.00    -0.216 OA
BRANCH   7   9
HETATM    9  C18 UNL     1      11.951  -2.372   1.566  1.00  0.00     0.166 C 
BRANCH   9  10
HETATM   10  N1  UNL     1      12.190  -2.642   0.149  1.00  0.00    -0.231 NA
HETATM   11  C19 UNL     1      12.661  -3.844  -0.291  1.00  0.00     0.276 C 
HETATM   12  O5  UNL     1      12.842  -4.794   0.458  1.00  0.00    -0.266 OA
BRANCH  11  13
HETATM   13  C20 UNL     1      12.982  -3.868  -1.735  1.00  0.00     0.074 C 
HETATM   14  C21 UNL     1      13.612  -4.922  -2.292  1.00  0.00     0.099 C 
BRANCH  14  15
HETATM   15  S1  UNL     1      14.075  -4.945  -4.023  1.00  0.00     0.192 S 
HETATM   16  C22 UNL     1      15.001  -6.442  -4.352  1.00  0.00     0.145 C 
HETATM   17  O3  UNL     1      12.868  -4.992  -4.827  1.00  0.00    -0.222 OA
HETATM   18  O4  UNL     1      14.962  -3.825  -4.276  1.00  0.00    -0.222 OA
ENDBRANCH  14  15
ENDBRANCH  11  13
ENDBRANCH   9  10
ENDBRANCH   7   9
ENDBRANCH   2   7
BRANCH   5  19
HETATM   19  O1  UNL     1       5.936  -0.006   0.659  1.00  0.00    -0.326 OA
BRANCH  19  20
HETATM   20  C7  UNL     1       5.534   1.123  -0.092  1.00  0.00     0.174 C 
BRANCH  20  21
HETATM   21  C8  UNL     1       4.057   1.356   0.131  1.00  0.00    -0.002 C 
HETATM   22  C9  UNL     1       3.458   2.410   0.716  1.00  0.00    -0.045 C 
HETATM   23  C16 UNL     1       4.168   3.635   1.243  1.00  0.00     0.026 C 
BRANCH  22  24
HETATM   24  C10 UNL     1       1.951   2.429   0.900  1.00  0.00     0.026 C 
BRANCH  24  25
HETATM   25  C11 UNL     1       1.236   3.210  -0.212  1.00  0.00     0.030 C 
BRANCH  25  26
HETATM   26  C12 UNL     1      -0.260   3.180  -0.001  1.00  0.00    -0.027 C 
HETATM   27  C13 UNL     1      -1.033   4.179   0.484  1.00  0.00     0.016 C 
HETATM   28  C15 UNL     1      -0.516   5.529   0.919  1.00  0.00     0.034 C 
BRANCH  27  29
HETATM   29  C14 UNL     1      -2.492   3.946   0.609  1.00  0.00     0.230 C 
HETATM   30  O2  UNL     1      -3.059   2.899   0.330  1.00  0.00    -0.283 OA
ENDBRANCH  27  29
ENDBRANCH  25  26
ENDBRANCH  24  25
ENDBRANCH  22  24
ENDBRANCH  20  21
ENDBRANCH  19  20
ENDBRANCH   5  19
TORSDOF 12
