REMARK  5 active torsions:
REMARK  status: ('A' for Active; 'I' for Inactive)
REMARK    1  A    between atoms: C1_2  and  C2_3 
REMARK    2  A    between atoms: C2_3  and  C3_4 
REMARK    3  A    between atoms: C3_4  and  C4_5 
REMARK    4  A    between atoms: C4_5  and  C5_6 
REMARK    5  A    between atoms: C5_6  and  C6_7 
ROOT
HETATM    1  C3  UNL     1       1.134   0.790  -0.015  1.00  0.00     0.315 C 
HETATM    2  N2  UNL     1       0.664   1.389   1.247  1.00  0.00     0.616 N 
ENDROOT
BRANCH   1   3
HETATM    3  C2  UNL     1       2.663   0.928  -0.122  1.00  0.00     0.137 C 
BRANCH   3   4
HETATM    4  C1  UNL     1       3.243   2.330  -0.098  1.00  0.00     0.187 C 
HETATM    5  O1  UNL     1       2.311   3.300  -0.139  1.00  0.00    -0.647 OA
HETATM    6  O3  UNL     1       4.419   2.602  -0.071  1.00  0.00    -0.647 OA
ENDBRANCH   3   4
ENDBRANCH   1   3
BRANCH   1   7
HETATM    7  C4  UNL     1       0.701  -0.686  -0.096  1.00  0.00     0.075 C 
BRANCH   7   8
HETATM    8  C5  UNL     1      -0.808  -0.909   0.009  1.00  0.00     0.193 C 
HETATM    9  O2  UNL     1      -1.476  -0.220  -1.020  1.00  0.00    -0.221 OA
BRANCH   8  10
HETATM   10  C6  UNL     1      -1.197  -2.382  -0.079  1.00  0.00     0.371 C 
HETATM   11  N1  UNL     1      -2.658  -2.506  -0.210  1.00  0.00     0.621 N 
ENDBRANCH   8  10
ENDBRANCH   7   8
ENDBRANCH   1   7
TORSDOF 5
