REMARK  13 active torsions:
REMARK  status: ('A' for Active; 'I' for Inactive)
REMARK    1  A    between atoms: C4_4  and  C7_7 
REMARK    2  A    between atoms: C7_7  and  C8_8 
REMARK    3  A    between atoms: C8_8  and  C9_9 
REMARK    4  A    between atoms: C9_9  and  C10_10 
REMARK    5  A    between atoms: C10_10  and  C11_11 
REMARK    6  A    between atoms: C12_13  and  C16_18 
REMARK    7  A    between atoms: C16_18  and  C17_19 
REMARK    8  A    between atoms: C18_20  and  C19_21 
REMARK    9  A    between atoms: C19_21  and  O3_22 
REMARK   10  A    between atoms: C22_27  and  O6_31 
REMARK   11  A    between atoms: C23_28  and  C24_29 
REMARK   12  A    between atoms: O6_31  and  C26_32 
REMARK   13  A    between atoms: C27_34  and  C31_41 
ROOT
HETATM    1  C17 UNL     1       1.289   0.211   2.177  1.00  0.00     0.041 C 
HETATM    2  C18 UNL     1       2.648  -0.135   2.732  1.00  0.00     0.065 C 
HETATM    3  C21 UNL     1       3.726  -0.194   1.930  1.00  0.00     0.120 C 
HETATM    4  O5  UNL     1       3.711   0.056   0.586  1.00  0.00    -0.303 OA
HETATM    5  C22 UNL     1       2.462   0.302  -0.021  1.00  0.00     0.246 C 
HETATM    6  C23 UNL     1       1.528   1.057   0.911  1.00  0.00     0.083 C 
ENDROOT
BRANCH   1   7
HETATM    7  C16 UNL     1       0.279   0.851   3.154  1.00  0.00     0.035 C 
BRANCH   7   8
HETATM    8  C12 UNL     1      -0.859  -0.087   3.609  1.00  0.00     0.123 C 
HETATM    9  O1  UNL     1      -1.454  -0.818   2.563  1.00  0.00    -0.358 OA
HETATM   10  C11 UNL     1      -2.114  -0.021   1.619  1.00  0.00     0.130 C 
HETATM   11  C15 UNL     1      -3.321   0.660   2.260  1.00  0.00     0.095 C 
HETATM   12  C14 UNL     1      -2.878   1.413   3.502  1.00  0.00     0.155 C 
HETATM   13  C13 UNL     1      -1.946   0.633   4.412  1.00  0.00     0.094 C 
HETATM   14  O2  UNL     1      -3.257   2.532   3.760  1.00  0.00    -0.296 OA
BRANCH  10  15
HETATM   15  C10 UNL     1      -2.469  -0.869   0.390  1.00  0.00     0.095 C 
BRANCH  15  16
HETATM   16  C9  UNL     1      -2.709  -0.057  -0.882  1.00  0.00     0.153 C 
HETATM   17  O12 UNL     1      -3.756  -0.115  -1.484  1.00  0.00    -0.296 OA
BRANCH  16  18
HETATM   18  C8  UNL     1      -1.551   0.804  -1.359  1.00  0.00     0.069 C 
BRANCH  18  19
HETATM   19  C7  UNL     1      -1.651   1.434  -2.754  1.00  0.00     0.034 C 
BRANCH  19  20
HETATM   20  C4  UNL     1      -0.436   2.322  -2.934  1.00  0.00    -0.022 A 
HETATM   21  C3  UNL     1       0.804   1.781  -3.292  1.00  0.00    -0.002 A 
HETATM   22  C2  UNL     1       1.943   2.582  -3.375  1.00  0.00     0.027 A 
HETATM   23  C1  UNL     1       1.888   3.951  -3.096  1.00  0.00     0.131 A 
HETATM   24  C6  UNL     1       0.648   4.490  -2.741  1.00  0.00     0.027 A 
HETATM   25  O13 UNL     1       2.998   4.733  -3.154  1.00  0.00    -0.190 OA
HETATM   26  C5  UNL     1      -0.495   3.692  -2.661  1.00  0.00    -0.002 A 
ENDBRANCH  19  20
ENDBRANCH  18  19
ENDBRANCH  16  18
ENDBRANCH  15  16
ENDBRANCH  10  15
ENDBRANCH   7   8
ENDBRANCH   1   7
BRANCH   2  27
HETATM   27  C19 UNL     1       2.808  -0.513   4.184  1.00  0.00     0.294 C 
HETATM   28  O4  UNL     1       2.108  -1.444   4.565  1.00  0.00    -0.259 OA
BRANCH  27  29
HETATM   29  O3  UNL     1       3.627   0.122   5.073  1.00  0.00    -0.296 OA
HETATM   30  C20 UNL     1       4.289   1.290   4.649  1.00  0.00     0.185 C 
ENDBRANCH  27  29
ENDBRANCH   2  27
BRANCH   6  31
HETATM   31  C24 UNL     1       2.043   2.448   1.198  1.00  0.00    -0.021 C 
HETATM   32  C25 UNL     1       1.403   3.569   0.834  1.00  0.00    -0.005 C 
ENDBRANCH   6  31
BRANCH   5  33
HETATM   33  O6  UNL     1       1.907  -0.970  -0.277  1.00  0.00    -0.303 OA
BRANCH  33  34
HETATM   34  C26 UNL     1       2.419  -1.648  -1.403  1.00  0.00     0.272 C 
HETATM   35  O7  UNL     1       1.281  -1.821  -2.224  1.00  0.00    -0.326 OA
HETATM   36  C27 UNL     1       1.553  -2.561  -3.385  1.00  0.00     0.184 C 
HETATM   37  C28 UNL     1       2.081  -3.942  -3.013  1.00  0.00     0.215 C 
HETATM   38  C29 UNL     1       3.311  -3.821  -2.139  1.00  0.00     0.220 C 
HETATM   39  O10 UNL     1       2.441  -4.672  -4.159  1.00  0.00    -0.218 OA
HETATM   40  C30 UNL     1       2.951  -2.982  -0.936  1.00  0.00     0.241 C 
HETATM   41  O9  UNL     1       3.718  -5.098  -1.719  1.00  0.00    -0.218 OA
HETATM   42  O8  UNL     1       4.099  -2.777  -0.153  1.00  0.00    -0.215 OA
BRANCH  36  43
HETATM   43  C31 UNL     1       0.271  -2.670  -4.201  1.00  0.00     0.214 C 
HETATM   44  O11 UNL     1      -0.156  -1.386  -4.607  1.00  0.00    -0.218 OA
ENDBRANCH  36  43
ENDBRANCH  33  34
ENDBRANCH   5  33
TORSDOF 13
