REMARK  4 active torsions:
REMARK  status: ('A' for Active; 'I' for Inactive)
REMARK    1  A    between atoms: C4_4  and  C8_10 
REMARK    2  A    between atoms: C6_6  and  O1_7 
REMARK    3  A    between atoms: C8_10  and  C9_11 
REMARK    4  A    between atoms: C10_12  and  C11_13 
ROOT
HETATM    1  C1  UNL     1       7.027   1.480  -0.263  1.00  0.00     0.155 A 
HETATM    2  C2  UNL     1       7.433   0.154  -0.416  1.00  0.00     0.029 A 
HETATM    3  C3  UNL     1       6.523  -0.888  -0.254  1.00  0.00     0.000 A 
HETATM    4  C4  UNL     1       5.195  -0.628   0.096  1.00  0.00     0.010 A 
HETATM    5  C5  UNL     1       4.785   0.705   0.252  1.00  0.00     0.151 A 
HETATM    6  C6  UNL     1       5.680   1.759   0.006  1.00  0.00     0.144 A 
HETATM    7  O2  UNL     1       3.519   1.020   0.641  1.00  0.00    -0.188 OA
HETATM    8  O3  UNL     1       7.913   2.505  -0.376  1.00  0.00    -0.188 OA
ENDROOT
BRANCH   4   9
HETATM    9  C8  UNL     1       4.261  -1.791   0.353  1.00  0.00     0.054 C 
BRANCH   9  10
HETATM   10  C9  UNL     1       2.849  -1.569  -0.125  1.00  0.00    -0.021 C 
HETATM   11  C10 UNL     1       1.771  -1.800   0.649  1.00  0.00    -0.004 C 
BRANCH  11  12
HETATM   12  C11 UNL     1       0.366  -1.627   0.239  1.00  0.00    -0.000 A 
HETATM   13  C12 UNL     1      -0.638  -2.241   1.006  1.00  0.00    -0.000 A 
HETATM   14  C13 UNL     1      -1.986  -2.092   0.678  1.00  0.00    -0.000 A 
HETATM   15  C14 UNL     1      -2.355  -1.306  -0.415  1.00  0.00    -0.000 A 
HETATM   16  C15 UNL     1      -1.370  -0.666  -1.169  1.00  0.00    -0.000 A 
HETATM   17  C16 UNL     1      -0.021  -0.820  -0.841  1.00  0.00    -0.000 A 
ENDBRANCH  11  12
ENDBRANCH   9  10
ENDBRANCH   4   9
BRANCH   6  18
HETATM   18  O1  UNL     1       5.290   3.054   0.221  1.00  0.00    -0.324 OA
HETATM   19  C7  UNL     1       4.865   3.712  -0.952  1.00  0.00     0.182 C 
ENDBRANCH   6  18
TORSDOF 4
