REMARK  6 active torsions:
REMARK  status: ('A' for Active; 'I' for Inactive)
REMARK    1  A    between atoms: C1_2  and  C20_27 
REMARK    2  A    between atoms: C2_3  and  C13_18 
REMARK    3  A    between atoms: C5_7  and  O5_16 
REMARK    4  A    between atoms: C17_22  and  O6_24 
REMARK    5  A    between atoms: C20_27  and  O8_28 
REMARK    6  A    between atoms: O8_28  and  C21_29 
ROOT
HETATM    1  O1  UNL     1       4.481  -1.207  -1.815  1.00  0.00    -0.324 OA
HETATM    2  C1  UNL     1       4.947  -0.401  -0.774  1.00  0.00     0.183 C 
HETATM    3  C2  UNL     1       4.014  -0.589   0.414  1.00  0.00     0.174 C 
HETATM    4  O2  UNL     1       2.750  -0.089   0.061  1.00  0.00    -0.322 OA
HETATM    5  C3  UNL     1       2.287  -0.496  -1.163  1.00  0.00     0.141 A 
HETATM    6  C4  UNL     1       3.146  -1.111  -2.098  1.00  0.00     0.140 A 
HETATM    7  C5  UNL     1       2.647  -1.543  -3.349  1.00  0.00     0.118 A 
HETATM    8  C6  UNL     1       1.279  -1.373  -3.579  1.00  0.00     0.028 A 
HETATM    9  C7  UNL     1       0.415  -0.796  -2.644  1.00  0.00     0.027 A 
HETATM   10  C8  UNL     1       0.910  -0.354  -1.411  1.00  0.00     0.128 A 
HETATM   11  O3  UNL     1       0.115   0.217  -0.453  1.00  0.00    -0.271 OA
HETATM   12  C9  UNL     1      -1.210   0.367  -0.738  1.00  0.00     0.300 A 
HETATM   13  C10 UNL     1      -1.807  -0.076  -2.018  1.00  0.00     0.069 A 
HETATM   14  C11 UNL     1      -1.007  -0.645  -2.944  1.00  0.00     0.008 A 
HETATM   15  O4  UNL     1      -1.960   0.888   0.087  1.00  0.00    -0.259 OA
ENDROOT
BRANCH   3  16
HETATM   16  C13 UNL     1       4.506   0.083   1.680  1.00  0.00     0.010 A 
HETATM   17  C14 UNL     1       4.859  -0.671   2.803  1.00  0.00     0.000 A 
HETATM   18  C15 UNL     1       5.386  -0.044   3.932  1.00  0.00     0.029 A 
HETATM   19  C16 UNL     1       5.545   1.343   3.982  1.00  0.00     0.153 A 
HETATM   20  C17 UNL     1       5.117   2.126   2.900  1.00  0.00     0.119 A 
HETATM   21  O7  UNL     1       6.094   1.952   5.065  1.00  0.00    -0.188 OA
HETATM   22  C18 UNL     1       4.666   1.470   1.746  1.00  0.00     0.025 A 
BRANCH  20  23
HETATM   23  O6  UNL     1       5.345   3.476   2.909  1.00  0.00    -0.326 OA
HETATM   24  C19 UNL     1       4.205   4.237   3.235  1.00  0.00     0.181 C 
ENDBRANCH  20  23
ENDBRANCH   3  16
BRANCH   2  25
HETATM   25  C20 UNL     1       6.401  -0.779  -0.492  1.00  0.00     0.185 C 
BRANCH  25  26
HETATM   26  O8  UNL     1       7.039   0.294   0.150  1.00  0.00    -0.299 OA
BRANCH  26  27
HETATM   27  C21 UNL     1       8.341   0.228   0.548  1.00  0.00     0.273 C 
HETATM   28  O9  UNL     1       8.916   1.181   1.032  1.00  0.00    -0.264 OA
HETATM   29  C22 UNL     1       9.023  -1.119   0.391  1.00  0.00     0.106 C 
ENDBRANCH  26  27
ENDBRANCH  25  26
ENDBRANCH   2  25
BRANCH   7  30
HETATM   30  O5  UNL     1       3.358  -2.128  -4.372  1.00  0.00    -0.326 OA
HETATM   31  C12 UNL     1       4.744  -2.346  -4.267  1.00  0.00     0.181 C 
ENDBRANCH   7  30
TORSDOF 6
