REMARK  4 active torsions:
REMARK  status: ('A' for Active; 'I' for Inactive)
REMARK    1  A    between atoms: C3_3  and  C4_4 
REMARK    2  A    between atoms: C4_4  and  C5_5 
REMARK    3  A    between atoms: C7_8  and  C16_19 
REMARK    4  A    between atoms: C16_19  and  C17_20 
ROOT
HETATM    1  C5  UNL     1       2.087  -0.597   0.006  1.00  0.00     0.111 C 
HETATM    2  C6  UNL     1       1.857  -2.002  -0.527  1.00  0.00     0.184 C 
HETATM    3  O1  UNL     1       2.572  -2.532  -1.365  1.00  0.00    -0.291 OA
HETATM    4  C7  UNL     1       0.740  -2.754   0.100  1.00  0.00     0.095 C 
HETATM    5  C8  UNL     1      -0.318  -2.072   0.613  1.00  0.00     0.138 C 
HETATM    6  C9  UNL     1      -0.342  -0.609   0.468  1.00  0.00     0.044 C 
HETATM    7  C10 UNL     1       0.757   0.117   0.133  1.00  0.00     0.081 C 
HETATM    8  O2  UNL     1       0.780   1.478   0.014  1.00  0.00    -0.335 OA
HETATM    9  C11 UNL     1      -0.441   2.167  -0.085  1.00  0.00     0.117 C 
HETATM   10  C12 UNL     1      -1.583   1.455   0.598  1.00  0.00     0.001 C 
HETATM   11  C13 UNL     1      -1.556   0.128   0.809  1.00  0.00     0.002 C 
HETATM   12  C14 UNL     1      -0.241   3.555   0.532  1.00  0.00     0.035 C 
HETATM   13  C15 UNL     1      -0.790   2.304  -1.573  1.00  0.00     0.035 C 
HETATM   14  O3  UNL     1      -1.382  -2.708   1.179  1.00  0.00    -0.190 OA
ENDROOT
BRANCH   1  15
HETATM   15  C4  UNL     1       3.153   0.166  -0.807  1.00  0.00     0.040 C 
BRANCH  15  16
HETATM   16  C3  UNL     1       3.716   1.372  -0.096  1.00  0.00    -0.034 C 
HETATM   17  C2  UNL     1       4.709   2.152  -0.559  1.00  0.00    -0.048 C 
HETATM   18  C1  UNL     1       5.210   3.340   0.230  1.00  0.00     0.026 C 
HETATM   19  C19 UNL     1       5.415   1.925  -1.873  1.00  0.00     0.026 C 
ENDBRANCH  15  16
ENDBRANCH   1  15
BRANCH   4  20
HETATM   20  C16 UNL     1       0.828  -4.244   0.195  1.00  0.00     0.178 C 
HETATM   21  O4  UNL     1      -0.179  -4.935   0.107  1.00  0.00    -0.291 OA
BRANCH  20  22
HETATM   22  C17 UNL     1       2.171  -4.891   0.498  1.00  0.00     0.069 C 
HETATM   23  C18 UNL     1       3.010  -4.155   1.551  1.00  0.00     0.009 C 
ENDBRANCH  20  22
ENDBRANCH   4  20
TORSDOF 4
