REMARK  0 active torsions:
REMARK  status: ('A' for Active; 'I' for Inactive)
ROOT
HETATM    1  C1  UNL     1      -1.432   2.544  -0.320  1.00  0.00     0.258 C 
HETATM    2  N1  UNL     1      -1.243   1.340  -1.123  1.00  0.00     0.165 N 
HETATM    3  C2  UNL     1      -0.197   0.465  -0.543  1.00  0.00     0.309 C 
HETATM    4  C3  UNL     1       1.132   1.237  -0.475  1.00  0.00     0.031 A 
HETATM    5  C4  UNL     1       1.120   2.630  -0.260  1.00  0.00    -0.018 A 
HETATM    6  C5  UNL     1      -0.170   3.407  -0.268  1.00  0.00     0.062 C 
HETATM    7  C6  UNL     1       2.307   3.365  -0.095  1.00  0.00     0.022 A 
HETATM    8  C7  UNL     1       3.519   2.692  -0.167  1.00  0.00     0.119 A 
HETATM    9  C8  UNL     1       3.551   1.331  -0.432  1.00  0.00     0.119 A 
HETATM   10  C9  UNL     1       2.382   0.600  -0.600  1.00  0.00     0.026 A 
HETATM   11  O1  UNL     1       4.866   0.910  -0.482  1.00  0.00    -0.300 OA
HETATM   12  C10 UNL     1       5.696   2.050  -0.225  1.00  0.00     0.304 A 
HETATM   13  O2  UNL     1       4.812   3.164  -0.045  1.00  0.00    -0.300 OA
HETATM   14  C11 UNL     1      -0.056  -0.856  -1.334  1.00  0.00     0.091 C 
HETATM   15  C12 UNL     1       0.656  -1.947  -0.571  1.00  0.00    -0.017 A 
HETATM   16  C13 UNL     1       0.822  -1.802   0.812  1.00  0.00     0.028 A 
HETATM   17  C14 UNL     1       0.278  -0.602   1.532  1.00  0.00     0.173 C 
HETATM   18  O3  UNL     1      -0.650   0.128   0.759  1.00  0.00    -0.324 OA
HETATM   19  C15 UNL     1       1.543  -2.791   1.478  1.00  0.00     0.117 A 
HETATM   20  C16 UNL     1       2.071  -3.891   0.812  1.00  0.00     0.119 A 
HETATM   21  C17 UNL     1       1.903  -4.057  -0.559  1.00  0.00     0.026 A 
HETATM   22  C18 UNL     1       1.188  -3.063  -1.237  1.00  0.00    -0.002 A 
HETATM   23  O4  UNL     1       2.743  -4.689   1.720  1.00  0.00    -0.300 OA
HETATM   24  C19 UNL     1       2.658  -4.054   3.002  1.00  0.00     0.304 A 
HETATM   25  O5  UNL     1       1.875  -2.869   2.816  1.00  0.00    -0.300 OA
HETATM   26  C20 UNL     1      -2.540   0.700  -1.329  1.00  0.00     0.289 C 
ENDROOT
TORSDOF 0
