REMARK  15 active torsions:
REMARK  status: ('A' for Active; 'I' for Inactive)
REMARK    1  A    between atoms: C1_1  and  O2_3 
REMARK    2  A    between atoms: C1_1  and  C41_61 
REMARK    3  A    between atoms: O2_3  and  C2_4 
REMARK    4  A    between atoms: C4_6  and  O17_53 
REMARK    5  A    between atoms: C6_8  and  C33_48 
REMARK    6  A    between atoms: C7_9  and  O3_10 
REMARK    7  A    between atoms: O3_10  and  C8_11 
REMARK    8  A    between atoms: C10_14  and  O13_44 
REMARK    9  A    between atoms: C11_15  and  O11_40 
REMARK   10  A    between atoms: O11_40  and  C29_41 
REMARK   11  A    between atoms: O13_44  and  C31_45 
REMARK   12  A    between atoms: C33_48  and  O15_49 
REMARK   13  A    between atoms: O15_49  and  C34_50 
REMARK   14  A    between atoms: O17_53  and  C36_54 
REMARK   15  A    between atoms: C36_54  and  C37_56 
ROOT
HETATM    1  C2  UNL     1       1.636   1.699  -1.010  1.00  0.00     0.157 C 
HETATM    2  C3  UNL     1       2.762   1.269  -1.967  1.00  0.00     0.088 C 
HETATM    3  C4  UNL     1       2.651  -0.247  -2.156  1.00  0.00     0.157 C 
HETATM    4  C5  UNL     1       3.279  -0.672  -0.820  1.00  0.00     0.153 C 
HETATM    5  C6  UNL     1       2.198  -0.494   0.330  1.00  0.00     0.111 C 
HETATM    6  C7  UNL     1       1.740   1.004   0.365  1.00  0.00     0.159 C 
HETATM    7  C10 UNL     1       2.909  -0.837   1.681  1.00  0.00     0.161 C 
HETATM    8  C11 UNL     1       3.580  -2.212   1.747  1.00  0.00     0.182 C 
HETATM    9  C12 UNL     1       4.560  -2.408   0.588  1.00  0.00     0.184 C 
HETATM   10  C13 UNL     1       3.953  -2.078  -0.788  1.00  0.00     0.179 C 
HETATM   11  C14 UNL     1       3.145  -3.265  -1.337  1.00  0.00     0.038 C 
HETATM   12  O5  UNL     1       5.059  -2.038  -1.658  1.00  0.00    -0.221 OA
HETATM   13  O6  UNL     1       5.662  -1.562   0.792  1.00  0.00    -0.299 OA
HETATM   14  C15 UNL     1       6.833  -2.038   1.295  1.00  0.00     0.272 C 
HETATM   15  C16 UNL     1       7.861  -0.912   1.395  1.00  0.00     0.092 C 
HETATM   16  C17 UNL     1       9.079  -1.026   0.440  1.00  0.00     0.050 C 
HETATM   17  C18 UNL     1       9.505   0.333  -0.124  1.00  0.00     0.064 A 
HETATM   18  C19 UNL     1       8.751   1.212  -0.939  1.00  0.00     0.077 A 
HETATM   19  C20 UNL     1       7.388   0.898  -1.443  1.00  0.00     0.297 C 
HETATM   20  O7  UNL     1       6.566   1.813  -2.038  1.00  0.00    -0.296 OA
HETATM   21  C21 UNL     1       5.291   1.394  -2.484  1.00  0.00     0.179 C 
HETATM   22  C22 UNL     1       4.184   1.409  -1.395  1.00  0.00     0.126 C 
HETATM   23  O8  UNL     1       4.304   0.277  -0.586  1.00  0.00    -0.356 OA
HETATM   24  C23 UNL     1       4.419   2.700  -0.587  1.00  0.00     0.033 C 
HETATM   25  O9  UNL     1       7.012  -0.253  -1.333  1.00  0.00    -0.259 OA
HETATM   26  C24 UNL     1       9.286   2.465  -1.284  1.00  0.00     0.008 A 
HETATM   27  C25 UNL     1      10.565   2.802  -0.853  1.00  0.00     0.021 A 
HETATM   28  C26 UNL     1      11.251   1.868  -0.073  1.00  0.00     0.099 A 
HETATM   29  N1  UNL     1      10.740   0.685   0.283  1.00  0.00    -0.248 NA
HETATM   30  C27 UNL     1       9.061  -2.152  -0.612  1.00  0.00     0.007 C 
HETATM   31  C28 UNL     1       8.311  -0.778   2.864  1.00  0.00     0.011 C 
HETATM   32  O10 UNL     1       7.013  -3.177   1.660  1.00  0.00    -0.264 OA
ENDROOT
BRANCH   1  33
HETATM   33  O2  UNL     1       0.405   1.402  -1.609  1.00  0.00    -0.298 OA
BRANCH  33  34
HETATM   34  C1  UNL     1      -0.580   2.334  -1.787  1.00  0.00     0.297 C 
HETATM   35  O1  UNL     1      -1.691   1.938  -2.124  1.00  0.00    -0.259 OA
BRANCH  34  36
HETATM   36  C41 UNL     1      -0.459   3.821  -1.627  1.00  0.00     0.082 A 
HETATM   37  C42 UNL     1      -1.473   4.527  -0.964  1.00  0.00     0.009 A 
HETATM   38  C43 UNL     1      -1.331   5.906  -0.817  1.00  0.00     0.021 A 
HETATM   39  C44 UNL     1      -0.197   6.523  -1.356  1.00  0.00     0.099 A 
HETATM   40  N2  UNL     1       0.767   5.867  -2.014  1.00  0.00    -0.242 NA
HETATM   41  C45 UNL     1       0.625   4.542  -2.143  1.00  0.00     0.104 A 
ENDBRANCH  34  36
ENDBRANCH  33  34
ENDBRANCH   1  33
BRANCH   6  42
HETATM   42  O3  UNL     1       0.556   1.166   1.101  1.00  0.00    -0.301 OA
BRANCH  42  43
HETATM   43  C8  UNL     1       0.196   2.406   1.521  1.00  0.00     0.272 C 
HETATM   44  C9  UNL     1      -1.122   2.343   2.263  1.00  0.00     0.106 C 
HETATM   45  O4  UNL     1       0.827   3.418   1.314  1.00  0.00    -0.264 OA
ENDBRANCH  42  43
ENDBRANCH   6  42
BRANCH   3  46
HETATM   46  O17 UNL     1       3.354  -0.617  -3.306  1.00  0.00    -0.297 OA
BRANCH  46  47
HETATM   47  C36 UNL     1       2.741  -1.282  -4.330  1.00  0.00     0.319 C 
HETATM   48  O18 UNL     1       3.388  -1.572  -5.332  1.00  0.00    -0.257 OA
BRANCH  47  49
HETATM   49  C37 UNL     1       1.283  -1.678  -4.365  1.00  0.00     0.163 A 
HETATM   50  O19 UNL     1       0.807  -2.953  -4.232  1.00  0.00    -0.300 OA
HETATM   51  C38 UNL     1      -0.549  -2.856  -4.201  1.00  0.00     0.123 A 
HETATM   52  C39 UNL     1      -0.945  -1.556  -4.308  1.00  0.00     0.029 A 
HETATM   53  C40 UNL     1       0.254  -0.782  -4.402  1.00  0.00     0.032 A 
ENDBRANCH  47  49
ENDBRANCH  46  47
ENDBRANCH   3  46
BRANCH   5  54
HETATM   54  C33 UNL     1       0.918  -1.349   0.098  1.00  0.00     0.159 C 
BRANCH  54  55
HETATM   55  O15 UNL     1       0.123  -1.476   1.250  1.00  0.00    -0.301 OA
BRANCH  55  56
HETATM   56  C34 UNL     1      -1.110  -2.028   1.097  1.00  0.00     0.272 C 
HETATM   57  C35 UNL     1      -1.833  -2.075   2.426  1.00  0.00     0.106 C 
HETATM   58  O16 UNL     1      -1.570  -2.410   0.043  1.00  0.00    -0.264 OA
ENDBRANCH  55  56
ENDBRANCH  54  55
ENDBRANCH   5  54
BRANCH   7  59
HETATM   59  O13 UNL     1       2.039  -0.686   2.769  1.00  0.00    -0.301 OA
BRANCH  59  60
HETATM   60  C31 UNL     1       2.527  -0.255   3.961  1.00  0.00     0.272 C 
HETATM   61  C32 UNL     1       1.405  -0.158   4.975  1.00  0.00     0.106 C 
HETATM   62  O14 UNL     1       3.687   0.003   4.185  1.00  0.00    -0.264 OA
ENDBRANCH  59  60
ENDBRANCH   7  59
BRANCH   8  63
HETATM   63  O11 UNL     1       2.606  -3.215   1.745  1.00  0.00    -0.299 OA
BRANCH  63  64
HETATM   64  C29 UNL     1       2.298  -4.007   2.811  1.00  0.00     0.273 C 
HETATM   65  O12 UNL     1       1.310  -4.710   2.813  1.00  0.00    -0.264 OA
HETATM   66  C30 UNL     1       3.285  -4.034   3.963  1.00  0.00     0.106 C 
ENDBRANCH  63  64
ENDBRANCH   8  63
TORSDOF 15
