REMARK  3 active torsions:
REMARK  status: ('A' for Active; 'I' for Inactive)
REMARK    1  A    between atoms: C7_7  and  C14_17 
REMARK    2  A    between atoms: C14_17  and  C15_18 
REMARK    3  A    between atoms: C15_18  and  C16_20 
ROOT
HETATM    1  C1  UNL     1      -2.167  -0.530   0.312  1.00  0.00     0.001 C 
HETATM    2  C2  UNL     1      -2.076  -1.434  -0.922  1.00  0.00     0.009 C 
HETATM    3  C3  UNL     1      -0.867  -2.389  -0.810  1.00  0.00     0.081 C 
HETATM    4  C4  UNL     1       0.426  -1.555  -0.843  1.00  0.00     0.045 C 
HETATM    5  C5  UNL     1       0.461  -0.616   0.367  1.00  0.00     0.059 C 
HETATM    6  C6  UNL     1      -0.840   0.200   0.539  1.00  0.00     0.005 C 
HETATM    7  C7  UNL     1       1.675   0.375   0.255  1.00  0.00     0.031 C 
HETATM    8  C8  UNL     1       2.875  -0.197  -0.484  1.00  0.00    -0.045 C 
HETATM    9  C9  UNL     1       2.876  -1.482  -0.866  1.00  0.00    -0.005 C 
HETATM   10  C10 UNL     1       1.696  -2.352  -0.538  1.00  0.00     0.140 C 
HETATM   11  O1  UNL     1       1.692  -2.580   0.849  1.00  0.00    -0.329 OA
HETATM   12  C11 UNL     1       0.699  -1.728   1.383  1.00  0.00     0.243 C 
HETATM   13  O2  UNL     1      -0.372  -2.628   1.570  1.00  0.00    -0.276 OA
HETATM   14  C12 UNL     1      -1.050  -3.141   0.506  1.00  0.00     0.273 C 
HETATM   15  O3  UNL     1      -1.839  -4.055   0.620  1.00  0.00    -0.264 OA
HETATM   16  C13 UNL     1       4.044   0.697  -0.816  1.00  0.00     0.026 C 
HETATM   17  C20 UNL     1      -0.907  -3.381  -1.989  1.00  0.00     0.010 C 
ENDROOT
BRANCH   7  18
HETATM   18  C14 UNL     1       2.070   1.004   1.610  1.00  0.00     0.073 C 
BRANCH  18  19
HETATM   19  C15 UNL     1       2.846   2.312   1.527  1.00  0.00     0.175 C 
HETATM   20  O4  UNL     1       3.976   2.409   1.994  1.00  0.00    -0.291 OA
BRANCH  19  21
HETATM   21  C16 UNL     1       2.214   3.487   0.890  1.00  0.00     0.061 A 
HETATM   22  C17 UNL     1       2.875   4.599   0.446  1.00  0.00     0.126 A 
HETATM   23  O5  UNL     1       1.998   5.466  -0.124  1.00  0.00    -0.303 OA
HETATM   24  C18 UNL     1       0.762   4.892  -0.033  1.00  0.00     0.123 A 
HETATM   25  C19 UNL     1       0.828   3.677   0.578  1.00  0.00     0.032 A 
ENDBRANCH  19  21
ENDBRANCH  18  19
ENDBRANCH   7  18
TORSDOF 3
