REMARK  0 active torsions:
REMARK  status: ('A' for Active; 'I' for Inactive)
ROOT
HETATM    1  C1  UNL     1       0.008   0.973  -0.467  1.00  0.00     0.161 C 
HETATM    2  C2  UNL     1       0.283  -0.554  -0.390  1.00  0.00     0.105 C 
HETATM    3  C3  UNL     1       1.600  -1.003  -1.057  1.00  0.00     0.134 C 
HETATM    4  C4  UNL     1       2.930  -0.568  -0.430  1.00  0.00     0.038 C 
HETATM    5  C5  UNL     1       2.986   0.577   0.592  1.00  0.00     0.006 C 
HETATM    6  C6  UNL     1       2.300   1.881   0.175  1.00  0.00     0.033 C 
HETATM    7  C7  UNL     1       0.783   1.954   0.418  1.00  0.00     0.153 C 
HETATM    8  O1  UNL     1       0.387   3.238  -0.021  1.00  0.00    -0.223 OA
HETATM    9  C8  UNL     1       0.454   1.930   1.915  1.00  0.00     0.036 C 
HETATM   10  C9  UNL     1       3.494  -1.871   0.153  1.00  0.00     0.089 C 
HETATM   11  C10 UNL     1       2.742  -2.950  -0.590  1.00  0.00     0.271 C 
HETATM   12  O2  UNL     1       1.653  -2.400  -1.176  1.00  0.00    -0.304 OA
HETATM   13  O3  UNL     1       3.035  -4.124  -0.625  1.00  0.00    -0.264 OA
HETATM   14  C11 UNL     1       5.016  -2.005   0.045  1.00  0.00     0.011 C 
HETATM   15  C12 UNL     1      -0.926  -1.063  -1.197  1.00  0.00     0.155 C 
HETATM   16  C13 UNL     1      -2.063  -0.060  -1.193  1.00  0.00     0.067 C 
HETATM   17  C14 UNL     1      -1.520   1.097  -0.346  1.00  0.00     0.041 C 
HETATM   18  O4  UNL     1      -1.003  -2.136  -1.750  1.00  0.00    -0.296 OA
HETATM   19  C15 UNL     1       0.098  -1.219   0.990  1.00  0.00     0.012 C 
HETATM   20  O5  UNL     1       0.296   1.382  -1.787  1.00  0.00    -0.223 OA
ENDROOT
TORSDOF 0
