REMARK  0 active torsions:
REMARK  status: ('A' for Active; 'I' for Inactive)
ROOT
HETATM    1  C1  UNL     1       0.371  -1.030   0.154  1.00  0.00     0.179 C 
HETATM    2  C2  UNL     1       0.464   0.517   0.137  1.00  0.00     0.113 C 
HETATM    3  C3  UNL     1       1.672   1.071   0.913  1.00  0.00     0.134 C 
HETATM    4  C4  UNL     1       3.050   0.444   0.664  1.00  0.00     0.038 C 
HETATM    5  C5  UNL     1       3.276  -0.348  -0.638  1.00  0.00     0.006 C 
HETATM    6  C6  UNL     1       2.667  -1.760  -0.677  1.00  0.00     0.033 C 
HETATM    7  C7  UNL     1       1.146  -1.874  -0.853  1.00  0.00     0.156 C 
HETATM    8  O1  UNL     1       0.810  -3.205  -0.528  1.00  0.00    -0.223 OA
HETATM    9  C8  UNL     1       0.745  -1.708  -2.321  1.00  0.00     0.036 C 
HETATM   10  C9  UNL     1       3.985   1.664   0.749  1.00  0.00     0.089 C 
HETATM   11  C10 UNL     1       3.071   2.857   0.591  1.00  0.00     0.271 C 
HETATM   12  O2  UNL     1       1.789   2.451   0.723  1.00  0.00    -0.304 OA
HETATM   13  O3  UNL     1       3.423   4.000   0.402  1.00  0.00    -0.264 OA
HETATM   14  C11 UNL     1       4.756   1.746   2.074  1.00  0.00     0.011 C 
HETATM   15  C12 UNL     1      -0.856   0.895   0.841  1.00  0.00     0.177 C 
HETATM   16  C13 UNL     1      -1.798  -0.220   0.609  1.00  0.00     0.035 C 
HETATM   17  C14 UNL     1      -1.119  -1.280   0.148  1.00  0.00     0.009 C 
HETATM   18  O4  UNL     1      -1.118   1.957   1.387  1.00  0.00    -0.291 OA
HETATM   19  C15 UNL     1       0.280   1.184  -1.245  1.00  0.00     0.013 C 
HETATM   20  O5  UNL     1       0.792  -1.472   1.431  1.00  0.00    -0.218 OA
ENDROOT
TORSDOF 0
