REMARK  7 active torsions:
REMARK  status: ('A' for Active; 'I' for Inactive)
REMARK    1  A    between atoms: C1_1  and  C18_26 
REMARK    2  A    between atoms: C2_2  and  O3_14 
REMARK    3  A    between atoms: C7_8  and  C9_10 
REMARK    4  A    between atoms: O3_14  and  C12_15 
REMARK    5  A    between atoms: C13_17  and  C17_24 
REMARK    6  A    between atoms: C18_26  and  C19_27 
REMARK    7  A    between atoms: C19_27  and  C20_28 
ROOT
HETATM    1  C1  UNL     1       4.388  -0.955  -0.890  1.00  0.00     0.001 A 
HETATM    2  C2  UNL     1       3.232  -0.774  -0.093  1.00  0.00     0.091 A 
HETATM    3  C3  UNL     1       2.069  -1.425  -0.532  1.00  0.00     0.025 A 
HETATM    4  C4  UNL     1       2.067  -2.246  -1.658  1.00  0.00     0.092 A 
HETATM    5  C5  UNL     1       3.200  -2.422  -2.445  1.00  0.00     0.024 A 
HETATM    6  C6  UNL     1       4.356  -1.755  -2.043  1.00  0.00    -0.000 A 
HETATM    7  O1  UNL     1       0.846  -2.850  -1.868  1.00  0.00    -0.331 OA
HETATM    8  C7  UNL     1       0.018  -2.612  -0.730  1.00  0.00     0.154 C 
HETATM    9  C8  UNL     1       0.685  -1.459   0.060  1.00  0.00     0.063 C 
ENDROOT
BRANCH   2  10
HETATM   10  O3  UNL     1       3.329   0.031   1.015  1.00  0.00    -0.304 OA
BRANCH  10  11
HETATM   11  C12 UNL     1       2.292   0.912   1.369  1.00  0.00     0.274 C 
HETATM   12  O4  UNL     1       2.138   1.815   0.298  1.00  0.00    -0.326 OA
HETATM   13  C13 UNL     1       1.133   2.768   0.541  1.00  0.00     0.184 C 
HETATM   14  C14 UNL     1       1.459   3.573   1.796  1.00  0.00     0.215 C 
HETATM   15  C15 UNL     1       1.663   2.653   2.981  1.00  0.00     0.220 C 
HETATM   16  O7  UNL     1       0.413   4.456   2.120  1.00  0.00    -0.218 OA
HETATM   17  C16 UNL     1       2.731   1.649   2.614  1.00  0.00     0.241 C 
HETATM   18  O6  UNL     1       2.075   3.400   4.096  1.00  0.00    -0.218 OA
HETATM   19  O5  UNL     1       2.883   0.733   3.670  1.00  0.00    -0.215 OA
BRANCH  13  20
HETATM   20  C17 UNL     1       1.023   3.677  -0.675  1.00  0.00     0.214 C 
HETATM   21  O8  UNL     1       0.610   2.929  -1.801  1.00  0.00    -0.218 OA
ENDBRANCH  13  20
ENDBRANCH  10  11
ENDBRANCH   2  10
BRANCH   1  22
HETATM   22  C18 UNL     1       5.673  -0.263  -0.461  1.00  0.00     0.040 C 
BRANCH  22  23
HETATM   23  C19 UNL     1       6.973  -0.687  -1.164  1.00  0.00     0.102 C 
BRANCH  23  24
HETATM   24  C20 UNL     1       8.206  -0.012  -0.591  1.00  0.00     0.186 C 
HETATM   25  O9  UNL     1       9.332  -0.487  -1.156  1.00  0.00    -0.647 OA
HETATM   26  O10 UNL     1       8.240   0.843   0.261  1.00  0.00    -0.647 OA
ENDBRANCH  23  24
ENDBRANCH  22  23
ENDBRANCH   1  22
BRANCH   8  27
HETATM   27  C9  UNL     1      -1.444  -2.389  -1.133  1.00  0.00     0.152 C 
HETATM   28  C10 UNL     1      -2.322  -2.100   0.086  1.00  0.00     0.036 C 
HETATM   29  C11 UNL     1      -1.990  -3.598  -1.897  1.00  0.00     0.036 C 
HETATM   30  O2  UNL     1      -1.501  -1.279  -1.991  1.00  0.00    -0.224 OA
ENDBRANCH   8  27
TORSDOF 7
