REMARK  2 active torsions:
REMARK  status: ('A' for Active; 'I' for Inactive)
REMARK    1  A    between atoms: C2_2  and  C3_3 
REMARK    2  A    between atoms: C3_3  and  C4_4 
ROOT
HETATM    1  C4  UNL     1      -0.795   0.267   0.230  1.00  0.00     0.091 C 
HETATM    2  C5  UNL     1      -0.782   0.267  -1.175  1.00  0.00     0.120 C 
HETATM    3  O1  UNL     1      -1.186   1.319  -1.930  1.00  0.00    -0.194 OA
HETATM    4  C6  UNL     1      -0.618  -1.153  -2.033  1.00  0.00     0.095 C 
HETATM    5  C7  UNL     1       0.203  -2.478  -1.515  1.00  0.00     0.162 C 
HETATM    6  C8  UNL     1       0.333  -2.362   0.129  1.00  0.00     0.107 C 
HETATM    7  C9  UNL     1      -0.481  -1.117   1.016  1.00  0.00     0.183 C 
HETATM    8  O2  UNL     1      -0.933  -1.362   2.129  1.00  0.00    -0.291 OA
HETATM    9  C10 UNL     1       0.689  -1.075  -0.461  1.00  0.00     0.014 C 
HETATM   10  C11 UNL     1      -1.138  -1.635  -0.752  1.00  0.00     0.014 C 
HETATM   11  C12 UNL     1       1.856  -0.791   0.636  1.00  0.00     0.001 C 
HETATM   12  C13 UNL     1       2.625  -2.131   0.706  1.00  0.00     0.001 C 
HETATM   13  C14 UNL     1       1.466  -3.111   0.805  1.00  0.00     0.014 C 
HETATM   14  C15 UNL     1       2.835   0.254   0.012  1.00  0.00     0.000 C 
HETATM   15  C16 UNL     1       1.665  -0.315   2.102  1.00  0.00     0.000 C 
HETATM   16  O3  UNL     1       0.643  -3.367  -2.209  1.00  0.00    -0.295 OA
HETATM   17  C17 UNL     1      -1.549  -1.364  -3.220  1.00  0.00     0.014 C 
ENDROOT
BRANCH   1  18
HETATM   18  C3  UNL     1      -1.407   1.424   0.995  1.00  0.00     0.177 C 
HETATM   19  O4  UNL     1      -2.436   1.149   1.597  1.00  0.00    -0.291 OA
BRANCH  18  20
HETATM   20  C2  UNL     1      -0.915   2.873   1.057  1.00  0.00     0.062 C 
HETATM   21  C1  UNL     1       0.526   3.078   1.538  1.00  0.00     0.008 C 
HETATM   22  C18 UNL     1      -1.180   3.702  -0.208  1.00  0.00     0.008 C 
ENDBRANCH  18  20
ENDBRANCH   1  18
TORSDOF 2
