REMARK  2 active torsions:
REMARK  status: ('A' for Active; 'I' for Inactive)
REMARK    1  A    between atoms: C1_2  and  C2_3 
REMARK    2  A    between atoms: C2_3  and  C3_4 
ROOT
HETATM    1  C3  UNL     1      -0.099   0.093   0.144  1.00  0.00     0.154 A 
HETATM    2  O2  UNL     1       1.079   0.127  -0.528  1.00  0.00    -0.211 OA
HETATM    3  N1  UNL     1       1.469   1.523  -0.545  1.00  0.00    -0.099 NA
HETATM    4  C4  UNL     1       0.578   2.241   0.068  1.00  0.00     0.240 A 
HETATM    5  C5  UNL     1      -0.451   1.354   0.528  1.00  0.00     0.075 A 
HETATM    6  O3  UNL     1       0.617   3.583   0.245  1.00  0.00    -0.167 OA
ENDROOT
BRANCH   1   7
HETATM    7  C2  UNL     1      -0.873  -1.158   0.432  1.00  0.00     0.434 C 
HETATM    8  N2  UNL     1      -0.106  -2.328  -0.015  1.00  0.00     0.635 N 
BRANCH   7   9
HETATM    9  C1  UNL     1      -2.224  -1.135  -0.257  1.00  0.00     0.230 C 
HETATM   10  O1  UNL     1      -3.282  -0.929   0.296  1.00  0.00    -0.646 OA
HETATM   11  O4  UNL     1      -2.077  -1.352  -1.579  1.00  0.00    -0.646 OA
ENDBRANCH   7   9
ENDBRANCH   1   7
TORSDOF 2
