REMARK  7 active torsions:
REMARK  status: ('A' for Active; 'I' for Inactive)
REMARK    1  A    between atoms: O1_2  and  C2_3 
REMARK    2  A    between atoms: C3_4  and  O2_5 
REMARK    3  A    between atoms: C8_10  and  O3_11 
REMARK    4  A    between atoms: C15_18  and  O10_33 
REMARK    5  A    between atoms: C16_19  and  O4_21 
REMARK    6  A    between atoms: O4_21  and  C18_22 
REMARK    7  A    between atoms: C19_24  and  C23_31 
ROOT
HETATM    1  C2  UNL     1       5.022   4.617  -0.828  1.00  0.00     0.138 C 
HETATM    2  C3  UNL     1       4.076   3.683  -0.346  1.00  0.00     0.118 C 
HETATM    3  C5  UNL     1       4.239   2.304  -0.589  1.00  0.00     0.020 C 
HETATM    4  C6  UNL     1       5.229   1.877  -1.483  1.00  0.00    -0.018 C 
HETATM    5  C7  UNL     1       6.110   2.817  -2.008  1.00  0.00     0.022 C 
HETATM    6  C8  UNL     1       6.014   4.187  -1.738  1.00  0.00     0.118 C 
HETATM    7  C10 UNL     1       5.311   0.425  -1.882  1.00  0.00     0.031 C 
HETATM    8  C11 UNL     1       3.883  -0.105  -2.076  1.00  0.00     0.031 C 
HETATM    9  C12 UNL     1       3.124   0.099  -0.789  1.00  0.00    -0.020 C 
HETATM   10  C13 UNL     1       3.363   1.247  -0.024  1.00  0.00    -0.000 C 
HETATM   11  C14 UNL     1       2.791   1.282   1.253  1.00  0.00     0.026 C 
HETATM   12  C15 UNL     1       1.912   0.309   1.753  1.00  0.00     0.116 C 
HETATM   13  C16 UNL     1       1.536  -0.751   0.897  1.00  0.00     0.119 C 
HETATM   14  C17 UNL     1       2.199  -0.843  -0.336  1.00  0.00     0.022 C 
ENDROOT
BRANCH  13  15
HETATM   15  O4  UNL     1       0.667  -1.703   1.357  1.00  0.00    -0.302 OA
BRANCH  15  16
HETATM   16  C18 UNL     1       0.767  -3.053   0.959  1.00  0.00     0.274 C 
HETATM   17  O5  UNL     1      -0.495  -3.356   0.406  1.00  0.00    -0.326 OA
HETATM   18  C19 UNL     1      -0.610  -4.699   0.014  1.00  0.00     0.184 C 
HETATM   19  C20 UNL     1      -0.384  -5.614   1.213  1.00  0.00     0.215 C 
HETATM   20  C21 UNL     1       0.969  -5.340   1.840  1.00  0.00     0.220 C 
HETATM   21  O8  UNL     1      -0.414  -6.967   0.832  1.00  0.00    -0.218 OA
HETATM   22  C22 UNL     1       1.020  -3.875   2.201  1.00  0.00     0.241 C 
HETATM   23  O7  UNL     1       1.118  -6.123   2.996  1.00  0.00    -0.218 OA
HETATM   24  O6  UNL     1       2.292  -3.547   2.700  1.00  0.00    -0.215 OA
BRANCH  18  25
HETATM   25  C23 UNL     1      -1.993  -4.904  -0.589  1.00  0.00     0.214 C 
HETATM   26  O9  UNL     1      -2.119  -4.146  -1.776  1.00  0.00    -0.218 OA
ENDBRANCH  18  25
ENDBRANCH  15  16
ENDBRANCH  13  15
BRANCH  12  27
HETATM   27  O10 UNL     1       1.401   0.537   3.011  1.00  0.00    -0.326 OA
HETATM   28  C24 UNL     1       0.093   0.115   3.325  1.00  0.00     0.181 C 
ENDBRANCH  12  27
BRANCH   2  29
HETATM   29  O2  UNL     1       3.103   4.127   0.516  1.00  0.00    -0.326 OA
HETATM   30  C4  UNL     1       1.911   4.509  -0.133  1.00  0.00     0.181 C 
ENDBRANCH   2  29
BRANCH   1  31
HETATM   31  O1  UNL     1       4.838   5.910  -0.385  1.00  0.00    -0.324 OA
HETATM   32  C1  UNL     1       5.749   6.940  -0.678  1.00  0.00     0.182 C 
ENDBRANCH   1  31
BRANCH   6  33
HETATM   33  O3  UNL     1       6.974   5.009  -2.266  1.00  0.00    -0.326 OA
HETATM   34  C9  UNL     1       6.803   5.283  -3.639  1.00  0.00     0.181 C 
ENDBRANCH   6  33
TORSDOF 7
