REMARK  16 active torsions:
REMARK  status: ('A' for Active; 'I' for Inactive)
REMARK    1  A    between atoms: C1_1  and  C13_21 
REMARK    2  A    between atoms: C4_4  and  O2_8 
REMARK    3  A    between atoms: O2_8  and  C7_9 
REMARK    4  A    between atoms: C8_11  and  C12_18 
REMARK    5  A    between atoms: C13_21  and  O9_22 
REMARK    6  A    between atoms: O9_22  and  C14_23 
REMARK    7  A    between atoms: C14_23  and  C15_24 
REMARK    8  A    between atoms: C18_27  and  O11_31 
REMARK    9  A    between atoms: O11_31  and  C21_32 
REMARK   10  A    between atoms: C22_33  and  C27_41 
REMARK   11  A    between atoms: C27_41  and  O15_42 
REMARK   12  A    between atoms: O15_42  and  C28_43 
REMARK   13  A    between atoms: C28_43  and  C29_44 
REMARK   14  A    between atoms: C32_47  and  O17_51 
REMARK   15  A    between atoms: O17_51  and  C35_52 
REMARK   16  A    between atoms: C36_54  and  C40_61 
ROOT
HETATM    1  C21 UNL     1      12.342   0.631  -0.295  1.00  0.00     0.133 A 
HETATM    2  C22 UNL     1      13.467   0.588   0.551  1.00  0.00     0.090 A 
HETATM    3  C23 UNL     1      13.963  -0.650   0.979  1.00  0.00     0.037 A 
HETATM    4  C24 UNL     1      13.435  -1.852   0.512  1.00  0.00     0.159 A 
HETATM    5  C25 UNL     1      12.389  -1.806  -0.411  1.00  0.00     0.183 A 
HETATM    6  C26 UNL     1      11.843  -0.581  -0.799  1.00  0.00     0.181 A 
HETATM    7  O12 UNL     1      10.837  -0.578  -1.714  1.00  0.00    -0.186 OA
HETATM    8  O13 UNL     1      11.878  -2.957  -0.920  1.00  0.00    -0.186 OA
HETATM    9  O14 UNL     1      13.925  -3.058   0.901  1.00  0.00    -0.188 OA
ENDROOT
BRANCH   1  10
HETATM   10  O11 UNL     1      11.749   1.802  -0.679  1.00  0.00    -0.301 OA
BRANCH  10  11
HETATM   11  C18 UNL     1      10.399   1.868  -0.439  1.00  0.00     0.150 A 
HETATM   12  C17 UNL     1       9.553   2.166  -1.517  1.00  0.00     0.156 A 
HETATM   13  C16 UNL     1       8.168   2.194  -1.339  1.00  0.00     0.035 A 
HETATM   14  O25 UNL     1      10.107   2.369  -2.741  1.00  0.00    -0.188 OA
HETATM   15  C15 UNL     1       7.599   1.904  -0.098  1.00  0.00     0.067 A 
HETATM   16  C20 UNL     1       8.446   1.616   0.977  1.00  0.00     0.035 A 
HETATM   17  C19 UNL     1       9.836   1.594   0.821  1.00  0.00     0.156 A 
HETATM   18  O10 UNL     1      10.623   1.288   1.886  1.00  0.00    -0.188 OA
BRANCH  15  19
HETATM   19  C14 UNL     1       6.102   1.894   0.031  1.00  0.00     0.296 C 
HETATM   20  O26 UNL     1       5.526   2.831  -0.519  1.00  0.00    -0.259 OA
BRANCH  19  21
HETATM   21  O9  UNL     1       5.340   0.959   0.676  1.00  0.00    -0.293 OA
BRANCH  21  22
HETATM   22  C13 UNL     1       5.927  -0.214   1.201  1.00  0.00     0.179 C 
BRANCH  22  23
HETATM   23  C1  UNL     1       4.965  -1.385   1.144  1.00  0.00     0.012 A 
HETATM   24  C2  UNL     1       5.419  -2.671   0.853  1.00  0.00     0.028 A 
HETATM   25  C3  UNL     1       4.545  -3.758   0.776  1.00  0.00     0.155 A 
HETATM   26  C4  UNL     1       3.166  -3.599   1.000  1.00  0.00     0.147 A 
HETATM   27  O8  UNL     1       5.036  -4.998   0.502  1.00  0.00    -0.188 OA
HETATM   28  C5  UNL     1       2.688  -2.300   1.268  1.00  0.00     0.155 A 
HETATM   29  C6  UNL     1       3.594  -1.235   1.355  1.00  0.00     0.028 A 
HETATM   30  O1  UNL     1       1.376  -2.023   1.494  1.00  0.00    -0.188 OA
BRANCH  26  31
HETATM   31  O2  UNL     1       2.420  -4.747   0.877  1.00  0.00    -0.299 OA
BRANCH  31  32
HETATM   32  C7  UNL     1       1.016  -4.737   0.819  1.00  0.00     0.274 C 
HETATM   33  O3  UNL     1       0.570  -4.723   2.158  1.00  0.00    -0.326 OA
HETATM   34  C8  UNL     1      -0.831  -4.711   2.253  1.00  0.00     0.184 C 
HETATM   35  C9  UNL     1      -1.394  -5.982   1.624  1.00  0.00     0.215 C 
HETATM   36  C10 UNL     1      -0.933  -6.105   0.186  1.00  0.00     0.220 C 
HETATM   37  O6  UNL     1      -2.800  -5.973   1.625  1.00  0.00    -0.218 OA
HETATM   38  C11 UNL     1       0.577  -6.027   0.160  1.00  0.00     0.241 C 
HETATM   39  O5  UNL     1      -1.354  -7.338  -0.339  1.00  0.00    -0.218 OA
HETATM   40  O4  UNL     1       1.016  -6.044  -1.175  1.00  0.00    -0.215 OA
BRANCH  34  41
HETATM   41  C12 UNL     1      -1.218  -4.601   3.721  1.00  0.00     0.214 C 
HETATM   42  O7  UNL     1      -0.783  -3.362   4.245  1.00  0.00    -0.218 OA
ENDBRANCH  34  41
ENDBRANCH  31  32
ENDBRANCH  26  31
ENDBRANCH  22  23
ENDBRANCH  21  22
ENDBRANCH  19  21
ENDBRANCH  15  19
ENDBRANCH  10  11
ENDBRANCH   1  10
BRANCH   2  43
HETATM   43  C27 UNL     1      14.143   1.861   0.996  1.00  0.00     0.298 C 
HETATM   44  O24 UNL     1      13.404   2.789   1.317  1.00  0.00    -0.259 OA
BRANCH  43  45
HETATM   45  O15 UNL     1      15.499   2.082   1.053  1.00  0.00    -0.293 OA
BRANCH  45  46
HETATM   46  C28 UNL     1      16.402   1.087   0.616  1.00  0.00     0.179 C 
BRANCH  46  47
HETATM   47  C29 UNL     1      17.710   1.649   0.095  1.00  0.00     0.012 A 
HETATM   48  C30 UNL     1      18.936   1.130   0.517  1.00  0.00     0.028 A 
HETATM   49  C31 UNL     1      20.141   1.538  -0.057  1.00  0.00     0.155 A 
HETATM   50  C32 UNL     1      20.149   2.513  -1.065  1.00  0.00     0.147 A 
HETATM   51  O23 UNL     1      21.325   0.987   0.322  1.00  0.00    -0.188 OA
HETATM   52  C33 UNL     1      18.925   3.038  -1.509  1.00  0.00     0.155 A 
HETATM   53  C34 UNL     1      17.732   2.615  -0.913  1.00  0.00     0.028 A 
HETATM   54  O16 UNL     1      18.884   3.946  -2.521  1.00  0.00    -0.188 OA
BRANCH  50  55
HETATM   55  O17 UNL     1      21.324   2.774  -1.718  1.00  0.00    -0.299 OA
BRANCH  55  56
HETATM   56  C35 UNL     1      21.942   4.008  -1.433  1.00  0.00     0.274 C 
HETATM   57  O18 UNL     1      22.824   4.145  -2.531  1.00  0.00    -0.326 OA
HETATM   58  C36 UNL     1      23.558   5.340  -2.499  1.00  0.00     0.184 C 
HETATM   59  C37 UNL     1      24.389   5.406  -1.222  1.00  0.00     0.215 C 
HETATM   60  C38 UNL     1      23.508   5.231  -0.002  1.00  0.00     0.220 C 
HETATM   61  O21 UNL     1      25.041   6.647  -1.109  1.00  0.00    -0.218 OA
HETATM   62  C39 UNL     1      22.735   3.938  -0.147  1.00  0.00     0.241 C 
HETATM   63  O20 UNL     1      24.313   5.177   1.148  1.00  0.00    -0.218 OA
HETATM   64  O19 UNL     1      21.883   3.791   0.959  1.00  0.00    -0.215 OA
BRANCH  58  65
HETATM   65  C40 UNL     1      24.451   5.386  -3.732  1.00  0.00     0.214 C 
HETATM   66  O22 UNL     1      23.662   5.398  -4.904  1.00  0.00    -0.218 OA
ENDBRANCH  58  65
ENDBRANCH  55  56
ENDBRANCH  50  55
ENDBRANCH  46  47
ENDBRANCH  45  46
ENDBRANCH  43  45
ENDBRANCH   2  43
TORSDOF 16
