REMARK  5 active torsions:
REMARK  status: ('A' for Active; 'I' for Inactive)
REMARK    1  A    between atoms: C5_5  and  C7_7 
REMARK    2  A    between atoms: C7_7  and  C8_8 
REMARK    3  A    between atoms: C8_8  and  C9_9 
REMARK    4  A    between atoms: C9_9  and  O1_10 
REMARK    5  A    between atoms: O1_10  and  C10_11 
ROOT
HETATM    1  C1  UNL     1       3.978   2.146  -2.116  1.00  0.00     0.025 A 
HETATM    2  C2  UNL     1       5.243   1.654  -2.470  1.00  0.00     0.102 A 
HETATM    3  C3  UNL     1       5.697   0.441  -1.962  1.00  0.00     0.050 A 
HETATM    4  C4  UNL     1       4.935  -0.346  -1.074  1.00  0.00     0.129 A 
HETATM    5  C5  UNL     1       3.679   0.143  -0.712  1.00  0.00     0.004 A 
HETATM    6  C6  UNL     1       3.223   1.378  -1.243  1.00  0.00    -0.000 A 
HETATM    7  O3  UNL     1       5.422  -1.522  -0.599  1.00  0.00    -0.190 OA
HETATM    8  C12 UNL     1       7.008   0.245  -2.533  1.00  0.00     0.031 A 
HETATM    9  C13 UNL     1       7.234   1.330  -3.318  1.00  0.00     0.123 A 
HETATM   10  O4  UNL     1       6.179   2.209  -3.302  1.00  0.00    -0.305 OA
ENDROOT
BRANCH   5  11
HETATM   11  C7  UNL     1       2.835  -0.673   0.252  1.00  0.00     0.039 C 
BRANCH  11  12
HETATM   12  C8  UNL     1       1.458  -0.108   0.634  1.00  0.00     0.101 C 
BRANCH  12  13
HETATM   13  C9  UNL     1       0.703  -0.991   1.617  1.00  0.00     0.272 C 
HETATM   14  O2  UNL     1       1.121  -2.030   2.074  1.00  0.00    -0.264 OA
BRANCH  13  15
HETATM   15  O1  UNL     1      -0.508  -0.444   1.911  1.00  0.00    -0.302 OA
BRANCH  15  16
HETATM   16  C10 UNL     1      -1.315  -1.153   2.814  1.00  0.00     0.152 C 
HETATM   17  C11 UNL     1      -2.617  -0.385   3.021  1.00  0.00     0.035 C 
ENDBRANCH  15  16
ENDBRANCH  13  15
ENDBRANCH  12  13
ENDBRANCH  11  12
ENDBRANCH   5  11
TORSDOF 5
