REMARK  6 active torsions:
REMARK  status: ('A' for Active; 'I' for Inactive)
REMARK    1  A    between atoms: C3_3  and  C7_7 
REMARK    2  A    between atoms: C7_7  and  C8_8 
REMARK    3  A    between atoms: C10_10  and  C21_23 
REMARK    4  A    between atoms: C21_23  and  C22_24 
REMARK    5  A    between atoms: C22_24  and  C23_25 
REMARK    6  A    between atoms: C23_25  and  C24_26 
ROOT
HETATM    1  C8  UNL     1       4.750   1.748  -0.411  1.00  0.00     0.033 A 
HETATM    2  C9  UNL     1       4.894   0.593   0.377  1.00  0.00     0.134 A 
HETATM    3  C10 UNL     1       3.792  -0.268   0.532  1.00  0.00     0.082 A 
HETATM    4  C11 UNL     1       2.549   0.024  -0.062  1.00  0.00     0.103 A 
HETATM    5  C12 UNL     1       2.439   1.184  -0.838  1.00  0.00     0.030 A 
HETATM    6  C13 UNL     1       3.533   2.038  -1.041  1.00  0.00     0.128 A 
HETATM    7  O1  UNL     1       3.409   3.114  -1.867  1.00  0.00    -0.191 OA
HETATM    8  C14 UNL     1       1.107   1.508  -1.477  1.00  0.00     0.059 C 
HETATM    9  C15 UNL     1      -0.019   0.917  -0.669  1.00  0.00     0.005 A 
HETATM   10  C16 UNL     1       0.242  -0.226   0.097  1.00  0.00     0.096 A 
HETATM   11  O2  UNL     1       1.475  -0.804   0.101  1.00  0.00    -0.307 OA
HETATM   12  C17 UNL     1      -0.808  -0.783   0.837  1.00  0.00     0.024 A 
HETATM   13  C18 UNL     1      -2.085  -0.221   0.832  1.00  0.00     0.002 A 
HETATM   14  C19 UNL     1      -2.332   0.920   0.069  1.00  0.00    -0.000 A 
HETATM   15  C20 UNL     1      -1.298   1.483  -0.680  1.00  0.00    -0.002 A 
HETATM   16  O4  UNL     1       6.110   0.312   0.922  1.00  0.00    -0.190 OA
ENDROOT
BRANCH   3  17
HETATM   17  C21 UNL     1       3.955  -1.522   1.341  1.00  0.00     0.177 C 
HETATM   18  O3  UNL     1       4.736  -1.558   2.283  1.00  0.00    -0.291 OA
BRANCH  17  19
HETATM   19  C22 UNL     1       3.200  -2.792   0.963  1.00  0.00     0.074 C 
BRANCH  19  20
HETATM   20  C23 UNL     1       3.939  -4.095   1.312  1.00  0.00     0.035 C 
BRANCH  20  21
HETATM   21  C24 UNL     1       3.197  -5.384   1.013  1.00  0.00    -0.022 A 
HETATM   22  C25 UNL     1       3.780  -6.601   1.389  1.00  0.00    -0.004 A 
HETATM   23  C26 UNL     1       3.140  -7.820   1.155  1.00  0.00    -0.000 A 
HETATM   24  C27 UNL     1       1.892  -7.843   0.532  1.00  0.00    -0.000 A 
HETATM   25  C28 UNL     1       1.296  -6.641   0.148  1.00  0.00    -0.000 A 
HETATM   26  C29 UNL     1       1.944  -5.427   0.387  1.00  0.00    -0.004 A 
ENDBRANCH  20  21
ENDBRANCH  19  20
ENDBRANCH  17  19
ENDBRANCH   3  17
BRANCH   1  27
HETATM   27  C7  UNL     1       5.933   2.682  -0.594  1.00  0.00     0.059 C 
BRANCH  27  28
HETATM   28  C3  UNL     1       5.557   4.126  -0.332  1.00  0.00     0.008 A 
HETATM   29  C2  UNL     1       5.635   5.104  -1.337  1.00  0.00     0.127 A 
HETATM   30  C1  UNL     1       5.244   6.413  -1.037  1.00  0.00     0.027 A 
HETATM   31  O5  UNL     1       6.081   4.798  -2.583  1.00  0.00    -0.191 OA
HETATM   32  C6  UNL     1       4.761   6.761   0.224  1.00  0.00     0.002 A 
HETATM   33  C5  UNL     1       4.668   5.785   1.215  1.00  0.00    -0.000 A 
HETATM   34  C4  UNL     1       5.069   4.479   0.932  1.00  0.00    -0.002 A 
ENDBRANCH  27  28
ENDBRANCH   1  27
TORSDOF 6
