REMARK  3 active torsions:
REMARK  status: ('A' for Active; 'I' for Inactive)
REMARK    1  A    between atoms: C2_2  and  C21_25 
REMARK    2  A    between atoms: C8_9  and  C10_12 
REMARK    3  A    between atoms: C21_25  and  C22_26 
ROOT
HETATM    1  C1  UNL     1      -1.088  -1.286  -0.058  1.00  0.00     0.131 A 
HETATM    2  C2  UNL     1      -0.527   0.000  -0.057  1.00  0.00     0.033 A 
HETATM    3  C3  UNL     1       0.858   0.175  -0.232  1.00  0.00     0.134 A 
HETATM    4  C4  UNL     1       1.666  -0.964  -0.409  1.00  0.00     0.087 A 
HETATM    5  C5  UNL     1       1.135  -2.262  -0.399  1.00  0.00     0.107 A 
HETATM    6  C6  UNL     1      -0.245  -2.385  -0.230  1.00  0.00     0.052 A 
HETATM    7  O1  UNL     1       1.895  -3.378  -0.582  1.00  0.00    -0.305 OA
HETATM    8  C7  UNL     1       3.222  -3.277  -0.298  1.00  0.00     0.126 C 
HETATM    9  C8  UNL     1       3.908  -2.113  -0.323  1.00  0.00     0.064 C 
HETATM   10  C9  UNL     1       3.143  -0.859  -0.573  1.00  0.00     0.201 C 
HETATM   11  O2  UNL     1       3.700   0.184  -0.897  1.00  0.00    -0.286 OA
HETATM   12  O4  UNL     1       1.393   1.426  -0.171  1.00  0.00    -0.190 OA
HETATM   13  O5  UNL     1      -2.418  -1.498   0.137  1.00  0.00    -0.190 OA
ENDROOT
BRANCH   9  14
HETATM   14  C10 UNL     1       5.366  -2.061  -0.059  1.00  0.00     0.005 A 
HETATM   15  C11 UNL     1       6.194  -3.137  -0.421  1.00  0.00     0.002 A 
HETATM   16  C12 UNL     1       7.571  -3.096  -0.210  1.00  0.00     0.024 A 
HETATM   17  C13 UNL     1       8.197  -1.992   0.378  1.00  0.00     0.094 A 
HETATM   18  C14 UNL     1       7.374  -0.902   0.706  1.00  0.00     0.022 A 
HETATM   19  O3  UNL     1       9.558  -1.955   0.514  1.00  0.00    -0.332 OA
HETATM   20  C15 UNL     1       5.984  -0.952   0.534  1.00  0.00     0.002 A 
HETATM   21  C16 UNL     1       8.028   0.261   1.312  1.00  0.00    -0.000 C 
HETATM   22  C17 UNL     1       9.367   0.343   1.215  1.00  0.00     0.001 C 
HETATM   23  C18 UNL     1      10.149  -0.685   0.427  1.00  0.00     0.117 C 
HETATM   24  C19 UNL     1      11.577  -0.808   0.968  1.00  0.00     0.035 C 
HETATM   25  C20 UNL     1      10.194  -0.257  -1.047  1.00  0.00     0.035 C 
ENDBRANCH   9  14
BRANCH   2  26
HETATM   26  C21 UNL     1      -1.432   1.192   0.203  1.00  0.00     0.056 C 
BRANCH  26  27
HETATM   27  C22 UNL     1      -1.169   2.392  -0.669  1.00  0.00    -0.030 C 
HETATM   28  C23 UNL     1      -1.343   3.678  -0.314  1.00  0.00    -0.048 C 
HETATM   29  C24 UNL     1      -1.007   4.808  -1.259  1.00  0.00     0.026 C 
HETATM   30  C25 UNL     1      -1.869   4.127   1.028  1.00  0.00     0.026 C 
ENDBRANCH  26  27
ENDBRANCH   2  26
TORSDOF 3
