REMARK  0 active torsions:
REMARK  status: ('A' for Active; 'I' for Inactive)
ROOT
HETATM    1  C1  UNL     1       1.772  -0.345   2.159  1.00  0.00     0.000 C 
HETATM    2  C2  UNL     1       0.480   0.362   2.578  1.00  0.00     0.004 C 
HETATM    3  C3  UNL     1      -0.322   0.641   1.295  1.00  0.00     0.018 C 
HETATM    4  C4  UNL     1       0.175  -0.364   0.230  1.00  0.00     0.006 C 
HETATM    5  C5  UNL     1       1.697  -0.436   0.631  1.00  0.00     0.001 C 
HETATM    6  C6  UNL     1      -0.022   0.317  -1.152  1.00  0.00     0.015 C 
HETATM    7  C7  UNL     1       0.426   1.694  -0.743  1.00  0.00    -0.049 C 
HETATM    8  C8  UNL     1       0.175   1.888   0.565  1.00  0.00    -0.035 C 
HETATM    9  C9  UNL     1       0.964   2.701  -1.711  1.00  0.00     0.026 C 
HETATM   10  C10 UNL     1       0.735  -0.680  -2.035  1.00  0.00     0.004 C 
HETATM   11  C11 UNL     1       0.191  -2.028  -1.484  1.00  0.00     0.000 C 
HETATM   12  C12 UNL     1      -0.256  -1.821  -0.005  1.00  0.00     0.001 C 
HETATM   13  C13 UNL     1      -1.717  -2.187   0.278  1.00  0.00     0.000 C 
HETATM   14  C14 UNL     1      -1.419   0.510  -1.779  1.00  0.00     0.004 C 
HETATM   15  C15 UNL     1      -1.812   0.758   1.639  1.00  0.00     0.004 C 
ENDROOT
TORSDOF 0
