REMARK  2 active torsions:
REMARK  status: ('A' for Active; 'I' for Inactive)
REMARK    1  A    between atoms: C10_11  and  O2_12 
REMARK    2  A    between atoms: O2_12  and  C11_13 
ROOT
HETATM    1  C1  UNL     1       5.058  -2.106  -1.585  1.00  0.00     0.033 C 
HETATM    2  C2  UNL     1       5.994  -1.138  -0.875  1.00  0.00     0.003 C 
HETATM    3  C3  UNL     1       5.368   0.251  -0.607  1.00  0.00     0.003 C 
HETATM    4  C4  UNL     1       3.973   0.077   0.091  1.00  0.00     0.037 C 
HETATM    5  C5  UNL     1       2.970  -0.983  -0.524  1.00  0.00     0.032 C 
HETATM    6  C6  UNL     1       3.768  -2.293  -0.791  1.00  0.00     0.152 C 
HETATM    7  O1  UNL     1       3.024  -3.245  -1.516  1.00  0.00    -0.224 OA
HETATM    8  C7  UNL     1       1.824  -1.243   0.530  1.00  0.00     0.018 C 
HETATM    9  C8  UNL     1       1.155   0.005   1.161  1.00  0.00     0.137 C 
HETATM   10  C9  UNL     1       2.158   1.090   1.497  1.00  0.00     0.186 C 
HETATM   11  C10 UNL     1       3.248   1.389   0.474  1.00  0.00     0.181 C 
HETATM   12  O4  UNL     1       2.063   1.743   2.513  1.00  0.00    -0.293 OA
HETATM   13  C13 UNL     1       0.022   0.566   0.285  1.00  0.00     0.170 C 
HETATM   14  C14 UNL     1      -1.089  -0.462   0.463  1.00  0.00     0.056 C 
HETATM   15  C15 UNL     1      -0.651  -1.731  -0.280  1.00  0.00     0.007 C 
HETATM   16  C16 UNL     1       0.704  -2.278   0.217  1.00  0.00     0.001 C 
HETATM   17  C17 UNL     1      -1.024  -0.672   1.950  1.00  0.00     0.015 C 
HETATM   18  C18 UNL     1       0.369  -0.472   2.397  1.00  0.00     0.177 C 
HETATM   19  O5  UNL     1       0.841  -0.773   3.486  1.00  0.00    -0.291 OA
HETATM   20  C19 UNL     1      -2.037  -1.005   2.768  1.00  0.00    -0.002 C 
HETATM   21  O6  UNL     1      -0.409   1.810   0.780  1.00  0.00    -0.222 OA
HETATM   22  C20 UNL     1       2.352  -0.536  -1.869  1.00  0.00     0.003 C 
HETATM   23  C21 UNL     1       6.440   0.947   0.284  1.00  0.00     0.000 C 
HETATM   24  C22 UNL     1       5.289   1.076  -1.908  1.00  0.00     0.000 C 
ENDROOT
BRANCH  11  25
HETATM   25  O2  UNL     1       4.153   2.330   1.000  1.00  0.00    -0.297 OA
BRANCH  25  26
HETATM   26  C11 UNL     1       3.884   3.661   1.136  1.00  0.00     0.273 C 
HETATM   27  O3  UNL     1       4.654   4.415   1.693  1.00  0.00    -0.264 OA
HETATM   28  C12 UNL     1       2.627   4.177   0.459  1.00  0.00     0.106 C 
ENDBRANCH  25  26
ENDBRANCH  11  25
TORSDOF 2
