REMARK  4 active torsions:
REMARK  status: ('A' for Active; 'I' for Inactive)
REMARK    1  A    between atoms: C4_4  and  O3_9 
REMARK    2  A    between atoms: C5_6  and  C6_7 
REMARK    3  A    between atoms: O3_9  and  C7_10 
REMARK    4  A    between atoms: C12_15  and  C13_16 
ROOT
HETATM    1  C7  UNL     1       1.721  -1.738  -0.762  1.00  0.00     0.120 C 
HETATM    2  C8  UNL     1       1.472  -0.948   0.375  1.00  0.00     0.149 C 
HETATM    3  C9  UNL     1       1.369   0.445   0.268  1.00  0.00     0.006 C 
HETATM    4  C10 UNL     1       1.698   1.065  -0.940  1.00  0.00     0.006 C 
HETATM    5  C11 UNL     1       2.166   0.271  -1.987  1.00  0.00    -0.002 C 
HETATM    6  C12 UNL     1       2.237  -1.125  -1.920  1.00  0.00     0.029 C 
HETATM    7  C16 UNL     1       1.484   2.544  -1.166  1.00  0.00     0.174 C 
HETATM    8  C17 UNL     1       2.011   3.519  -0.103  1.00  0.00     0.040 C 
HETATM    9  C18 UNL     1       2.805   2.921   1.076  1.00  0.00     0.031 C 
HETATM   10  C19 UNL     1       1.906   2.168   2.071  1.00  0.00     0.131 C 
HETATM   11  C20 UNL     1       0.846   1.277   1.415  1.00  0.00     0.059 C 
HETATM   12  C21 UNL     1       2.763   1.333   3.037  1.00  0.00     0.031 C 
HETATM   13  C22 UNL     1       4.134   1.954   3.345  1.00  0.00     0.003 C 
HETATM   14  C23 UNL     1       4.097   3.480   3.222  1.00  0.00     0.000 C 
HETATM   15  C24 UNL     1       3.756   3.943   1.782  1.00  0.00     0.002 C 
HETATM   16  C25 UNL     1       3.177   5.375   1.873  1.00  0.00     0.000 C 
HETATM   17  C26 UNL     1       5.078   4.043   0.978  1.00  0.00     0.000 C 
HETATM   18  O5  UNL     1       1.176   3.103   2.828  1.00  0.00    -0.226 OA
HETATM   19  O6  UNL     1       0.091   2.736  -1.360  1.00  0.00    -0.219 OA
HETATM   20  O7  UNL     1       1.146  -1.571   1.540  1.00  0.00    -0.188 OA
ENDROOT
BRANCH   1  21
HETATM   21  O3  UNL     1       1.625  -3.093  -0.615  1.00  0.00    -0.302 OA
BRANCH  21  22
HETATM   22  C4  UNL     1       0.401  -3.694  -1.020  1.00  0.00     0.274 C 
HETATM   23  C3  UNL     1      -0.182  -4.559   0.080  1.00  0.00     0.241 C 
HETATM   24  C2  UNL     1      -1.371  -3.965   0.804  1.00  0.00     0.220 C 
HETATM   25  O8  UNL     1      -0.552  -5.812  -0.457  1.00  0.00    -0.215 OA
HETATM   26  C1  UNL     1      -2.341  -3.362  -0.187  1.00  0.00     0.215 C 
HETATM   27  O9  UNL     1      -0.943  -2.969   1.701  1.00  0.00    -0.218 OA
HETATM   28  C5  UNL     1      -1.679  -2.380  -1.138  1.00  0.00     0.184 C 
HETATM   29  O10 UNL     1      -2.956  -4.387  -0.933  1.00  0.00    -0.218 OA
HETATM   30  O1  UNL     1      -0.451  -2.779  -1.685  1.00  0.00    -0.326 OA
BRANCH  28  31
HETATM   31  C6  UNL     1      -1.628  -0.947  -0.618  1.00  0.00     0.214 C 
HETATM   32  O2  UNL     1      -0.913  -0.131  -1.526  1.00  0.00    -0.218 OA
ENDBRANCH  28  31
ENDBRANCH  21  22
ENDBRANCH   1  21
BRANCH   6  33
HETATM   33  C13 UNL     1       2.766  -1.862  -3.157  1.00  0.00     0.147 C 
HETATM   34  C14 UNL     1       3.479  -3.191  -2.887  1.00  0.00     0.038 C 
HETATM   35  O4  UNL     1       3.748  -1.056  -3.786  1.00  0.00    -0.221 OA
HETATM   36  C15 UNL     1       1.644  -2.059  -4.179  1.00  0.00     0.038 C 
ENDBRANCH   6  33
TORSDOF 4
