REMARK  3 active torsions:
REMARK  status: ('A' for Active; 'I' for Inactive)
REMARK    1  A    between atoms: C3_3  and  C20_26 
REMARK    2  A    between atoms: C5_5  and  O1_7 
REMARK    3  A    between atoms: O1_7  and  C7_8 
ROOT
HETATM    1  C1  UNL     1       0.613  -2.165   1.769  1.00  0.00     0.003 C 
HETATM    2  C2  UNL     1       1.526  -2.718   0.652  1.00  0.00     0.003 C 
HETATM    3  C3  UNL     1       1.503  -1.867  -0.690  1.00  0.00     0.038 C 
HETATM    4  C4  UNL     1       1.065  -0.331  -0.644  1.00  0.00     0.059 C 
HETATM    5  C5  UNL     1       0.103  -0.058   0.539  1.00  0.00     0.127 C 
HETATM    6  C6  UNL     1       0.613  -0.640   1.849  1.00  0.00     0.030 C 
HETATM    7  C9  UNL     1       0.306   0.116  -1.936  1.00  0.00     0.154 C 
HETATM    8  O3  UNL     1      -0.188   1.424  -1.896  1.00  0.00    -0.301 OA
HETATM    9  C10 UNL     1       0.564   2.469  -1.477  1.00  0.00     0.278 C 
HETATM   10  C11 UNL     1       1.908   2.151  -0.831  1.00  0.00     0.136 C 
HETATM   11  C12 UNL     1       2.289   0.655  -0.723  1.00  0.00     0.051 C 
HETATM   12  C13 UNL     1       3.568   0.444   0.115  1.00  0.00     0.153 C 
HETATM   13  C14 UNL     1       3.871   1.464   1.218  1.00  0.00     0.037 C 
HETATM   14  C15 UNL     1       3.495   2.896   0.822  1.00  0.00     0.029 C 
HETATM   15  C16 UNL     1       1.991   2.883   0.531  1.00  0.00     0.021 C 
HETATM   16  C17 UNL     1       4.025   3.276  -0.535  1.00  0.00     0.013 C 
HETATM   17  C18 UNL     1       3.067   2.837  -1.572  1.00  0.00     0.177 C 
HETATM   18  O4  UNL     1       3.169   2.918  -2.788  1.00  0.00    -0.291 OA
HETATM   19  C19 UNL     1       5.189   3.891  -0.806  1.00  0.00    -0.002 C 
HETATM   20  O5  UNL     1       4.691   0.430  -0.746  1.00  0.00    -0.223 OA
HETATM   21  O6  UNL     1       0.152   3.610  -1.529  1.00  0.00    -0.264 OA
HETATM   22  C21 UNL     1       1.083  -4.203   0.499  1.00  0.00     0.000 C 
HETATM   23  C22 UNL     1       2.952  -2.851   1.261  1.00  0.00     0.000 C 
ENDROOT
BRANCH   3  24
HETATM   24  C20 UNL     1       0.862  -2.625  -1.877  1.00  0.00     0.182 C 
HETATM   25  O7  UNL     1       1.583  -3.790  -2.232  1.00  0.00    -0.221 OA
ENDBRANCH   3  24
BRANCH   5  26
HETATM   26  O1  UNL     1      -1.169  -0.589   0.272  1.00  0.00    -0.304 OA
BRANCH  26  27
HETATM   27  C7  UNL     1      -2.345   0.079   0.451  1.00  0.00     0.272 C 
HETATM   28  O2  UNL     1      -3.408  -0.407   0.124  1.00  0.00    -0.264 OA
HETATM   29  C8  UNL     1      -2.281   1.438   1.125  1.00  0.00     0.106 C 
ENDBRANCH  26  27
ENDBRANCH   5  26
TORSDOF 3
