REMARK  2 active torsions:
REMARK  status: ('A' for Active; 'I' for Inactive)
REMARK    1  A    between atoms: C5_5  and  C8_8 
REMARK    2  A    between atoms: C9_11  and  C12_14 
ROOT
HETATM    1  C1  UNL     1      -0.851   1.497   1.350  1.00  0.00     0.005 C 
HETATM    2  C2  UNL     1      -1.740   0.138   0.934  1.00  0.00     0.008 C 
HETATM    3  C3  UNL     1      -1.988  -0.518  -0.536  1.00  0.00     0.026 C 
HETATM    4  C4  UNL     1      -0.688  -0.653  -1.608  1.00  0.00    -0.020 C 
HETATM    5  C5  UNL     1       0.856  -0.051  -1.363  1.00  0.00     0.056 C 
HETATM    6  C6  UNL     1       1.424   0.777  -0.377  1.00  0.00    -0.020 C 
HETATM    7  C7  UNL     1       0.824   1.588   0.939  1.00  0.00     0.026 C 
HETATM    8  C9  UNL     1      -0.369  -0.191   0.566  1.00  0.00     0.019 C 
HETATM    9  C10 UNL     1      -0.797   1.338  -0.523  1.00  0.00     0.004 C 
HETATM   10  C11 UNL     1      -1.472   2.406   0.341  1.00  0.00     0.001 C 
HETATM   11  C15 UNL     1      -1.101   1.952   2.790  1.00  0.00     0.000 C 
ENDROOT
BRANCH   5  12
HETATM   12  C8  UNL     1       1.788  -0.531  -2.425  1.00  0.00     0.210 C 
HETATM   13  O1  UNL     1       2.941  -0.124  -2.510  1.00  0.00    -0.644 OA
HETATM   14  O2  UNL     1       1.417  -1.430  -3.362  1.00  0.00    -0.644 OA
ENDBRANCH   5  12
BRANCH   8  15
HETATM   15  C12 UNL     1       0.094  -1.692   0.448  1.00  0.00    -0.044 C 
HETATM   16  C13 UNL     1       1.398  -2.045   0.423  1.00  0.00    -0.009 C 
HETATM   17  C14 UNL     1      -0.854  -2.857   0.709  1.00  0.00     0.026 C 
ENDBRANCH   8  15
TORSDOF 2
