REMARK  3 active torsions:
REMARK  status: ('A' for Active; 'I' for Inactive)
REMARK    1  A    between atoms: C10_10  and  O1_11 
REMARK    2  A    between atoms: O1_11  and  C11_12 
REMARK    3  A    between atoms: C11_12  and  C12_13 
ROOT
HETATM    1  C1  UNL     1      -1.509   1.198  -2.734  1.00  0.00     0.033 C 
HETATM    2  C2  UNL     1      -2.502   0.298  -2.010  1.00  0.00     0.152 C 
HETATM    3  C3  UNL     1      -1.792  -0.719  -1.091  1.00  0.00     0.030 C 
HETATM    4  C4  UNL     1      -0.376  -0.216  -0.645  1.00  0.00     0.030 C 
HETATM    5  C5  UNL     1      -0.133   1.323  -0.521  1.00  0.00     0.003 C 
HETATM    6  C6  UNL     1      -0.782   2.086  -1.718  1.00  0.00     0.003 C 
HETATM    7  C7  UNL     1       1.420   1.578  -0.469  1.00  0.00     0.001 C 
HETATM    8  C8  UNL     1       2.123   0.724   0.626  1.00  0.00     0.010 C 
HETATM    9  C9  UNL     1       1.792  -0.776   0.535  1.00  0.00     0.031 C 
HETATM   10  C10 UNL     1       0.287  -1.046   0.474  1.00  0.00     0.125 C 
HETATM   11  C18 UNL     1       3.652   0.927   0.660  1.00  0.00     0.065 C 
HETATM   12  C19 UNL     1       4.069   2.369   0.427  1.00  0.00     0.150 C 
HETATM   13  C20 UNL     1       3.237   3.168  -0.573  1.00  0.00     0.051 C 
HETATM   14  C21 UNL     1       1.769   3.052  -0.144  1.00  0.00     0.007 C 
HETATM   15  C22 UNL     1       3.715   4.623  -0.664  1.00  0.00     0.007 C 
HETATM   16  C23 UNL     1       3.235   2.451  -1.932  1.00  0.00     0.007 C 
HETATM   17  C24 UNL     1       2.164   1.349  -1.817  1.00  0.00     0.000 C 
HETATM   18  O3  UNL     1       5.036   2.832   0.986  1.00  0.00    -0.296 OA
HETATM   19  C25 UNL     1      -0.795   1.913   0.754  1.00  0.00     0.000 C 
HETATM   20  C26 UNL     1      -1.617  -2.017  -1.934  1.00  0.00     0.003 C 
HETATM   21  C27 UNL     1      -2.729  -1.116   0.072  1.00  0.00     0.003 C 
HETATM   22  O4  UNL     1      -3.404   1.110  -1.293  1.00  0.00    -0.224 OA
ENDROOT
BRANCH  10  23
HETATM   23  O1  UNL     1      -0.289  -0.774   1.714  1.00  0.00    -0.301 OA
BRANCH  23  24
HETATM   24  C11 UNL     1      -0.233  -1.650   2.762  1.00  0.00     0.296 C 
HETATM   25  O2  UNL     1      -0.641  -1.270   3.855  1.00  0.00    -0.259 OA
BRANCH  24  26
HETATM   26  C12 UNL     1       0.275  -3.067   2.745  1.00  0.00     0.063 A 
HETATM   27  C13 UNL     1      -0.174  -4.005   1.808  1.00  0.00     0.005 A 
HETATM   28  C14 UNL     1       0.304  -5.315   1.842  1.00  0.00     0.000 A 
HETATM   29  C15 UNL     1       1.210  -5.708   2.832  1.00  0.00     0.000 A 
HETATM   30  C16 UNL     1       1.630  -4.787   3.791  1.00  0.00     0.000 A 
HETATM   31  C17 UNL     1       1.159  -3.473   3.752  1.00  0.00     0.005 A 
ENDBRANCH  24  26
ENDBRANCH  23  24
ENDBRANCH  10  23
TORSDOF 3
