REMARK  3 active torsions:
REMARK  status: ('A' for Active; 'I' for Inactive)
REMARK    1  A    between atoms: C3_3  and  C20_26 
REMARK    2  A    between atoms: C5_5  and  O1_7 
REMARK    3  A    between atoms: O1_7  and  C7_8 
ROOT
HETATM    1  C1  UNL     1       0.716  -2.360   1.736  1.00  0.00     0.003 C 
HETATM    2  C2  UNL     1       1.760  -2.802   0.695  1.00  0.00     0.010 C 
HETATM    3  C3  UNL     1       1.606  -1.966  -0.631  1.00  0.00     0.092 C 
HETATM    4  C4  UNL     1       1.157  -0.443  -0.625  1.00  0.00     0.067 C 
HETATM    5  C5  UNL     1       0.193  -0.174   0.557  1.00  0.00     0.127 C 
HETATM    6  C6  UNL     1       0.634  -0.833   1.864  1.00  0.00     0.030 C 
HETATM    7  C9  UNL     1       0.440  -0.105  -1.971  1.00  0.00     0.155 C 
HETATM    8  O3  UNL     1      -0.082   1.189  -2.048  1.00  0.00    -0.301 OA
HETATM    9  C10 UNL     1       0.663   2.282  -1.770  1.00  0.00     0.278 C 
HETATM   10  C11 UNL     1       1.957   2.054  -1.002  1.00  0.00     0.136 C 
HETATM   11  C12 UNL     1       2.350   0.580  -0.717  1.00  0.00     0.052 C 
HETATM   12  C13 UNL     1       3.541   0.498   0.254  1.00  0.00     0.153 C 
HETATM   13  C14 UNL     1       3.711   1.628   1.273  1.00  0.00     0.037 C 
HETATM   14  C15 UNL     1       3.383   3.007   0.689  1.00  0.00     0.029 C 
HETATM   15  C16 UNL     1       1.914   2.946   0.264  1.00  0.00     0.021 C 
HETATM   16  C17 UNL     1       4.031   3.240  -0.650  1.00  0.00     0.013 C 
HETATM   17  C18 UNL     1       3.170   2.679  -1.712  1.00  0.00     0.177 C 
HETATM   18  O4  UNL     1       3.380   2.628  -2.916  1.00  0.00    -0.291 OA
HETATM   19  C19 UNL     1       5.211   3.838  -0.883  1.00  0.00    -0.002 C 
HETATM   20  O5  UNL     1       4.746   0.414  -0.480  1.00  0.00    -0.223 OA
HETATM   21  O6  UNL     1       0.263   3.404  -2.004  1.00  0.00    -0.264 OA
HETATM   22  C21 UNL     1       1.589  -4.331   0.444  1.00  0.00     0.001 C 
HETATM   23  C22 UNL     1       3.169  -2.742   1.350  1.00  0.00     0.001 C 
ENDROOT
BRANCH   3  24
HETATM   24  C20 UNL     1       0.809  -2.781  -1.657  1.00  0.00     0.185 C 
HETATM   25  O7  UNL     1       1.235  -3.211  -2.703  1.00  0.00    -0.647 OA
HETATM   26  O8  UNL     1      -0.475  -2.971  -1.295  1.00  0.00    -0.647 OA
ENDBRANCH   3  24
BRANCH   5  27
HETATM   27  O1  UNL     1      -1.102  -0.624   0.259  1.00  0.00    -0.304 OA
BRANCH  27  28
HETATM   28  C7  UNL     1      -2.245   0.086   0.489  1.00  0.00     0.272 C 
HETATM   29  O2  UNL     1      -3.338  -0.362   0.215  1.00  0.00    -0.264 OA
HETATM   30  C8  UNL     1      -2.098   1.466   1.105  1.00  0.00     0.106 C 
ENDBRANCH  27  28
ENDBRANCH   5  27
TORSDOF 3
