REMARK  2 active torsions:
REMARK  status: ('A' for Active; 'I' for Inactive)
REMARK    1  A    between atoms: C5_5  and  C8_8 
REMARK    2  A    between atoms: C9_10  and  C12_13 
ROOT
HETATM    1  C1  UNL     1      -0.839   1.386   1.243  1.00  0.00     0.005 C 
HETATM    2  C2  UNL     1      -1.692   0.007   0.811  1.00  0.00     0.008 C 
HETATM    3  C3  UNL     1      -1.963  -0.613  -0.670  1.00  0.00     0.026 C 
HETATM    4  C4  UNL     1      -0.699  -0.661  -1.790  1.00  0.00    -0.023 C 
HETATM    5  C5  UNL     1       0.827  -0.007  -1.576  1.00  0.00     0.034 C 
HETATM    6  C6  UNL     1       1.400   0.809  -0.585  1.00  0.00    -0.023 C 
HETATM    7  C7  UNL     1       0.820   1.551   0.778  1.00  0.00     0.026 C 
HETATM    8  C9  UNL     1      -0.323  -0.256   0.389  1.00  0.00     0.019 C 
HETATM    9  C10 UNL     1      -0.844   1.289  -0.635  1.00  0.00     0.004 C 
HETATM   10  C11 UNL     1      -1.528   2.303   0.286  1.00  0.00     0.001 C 
HETATM   11  C15 UNL     1      -1.058   1.787   2.704  1.00  0.00     0.000 C 
ENDROOT
BRANCH   8  12
HETATM   12  C12 UNL     1       0.199  -1.731   0.207  1.00  0.00    -0.044 C 
HETATM   13  C13 UNL     1       1.516  -2.022   0.153  1.00  0.00    -0.009 C 
HETATM   14  C14 UNL     1      -0.692  -2.945   0.443  1.00  0.00     0.026 C 
ENDBRANCH   8  12
BRANCH   5  15
HETATM   15  C8  UNL     1       1.730  -0.401  -2.689  1.00  0.00     0.234 C 
HETATM   16  O1  UNL     1       2.905  -0.075  -2.792  1.00  0.00    -0.283 OA
ENDBRANCH   5  15
TORSDOF 2
