REMARK  10 active torsions:
REMARK  status: ('A' for Active; 'I' for Inactive)
REMARK    1  A    between atoms: C1_1  and  C2_2 
REMARK    2  A    between atoms: C1_1  and  O9_42 
REMARK    3  A    between atoms: C5_5  and  O1_8 
REMARK    4  A    between atoms: C11_12  and  O7_38 
REMARK    5  A    between atoms: C13_14  and  O2_15 
REMARK    6  A    between atoms: C19_22  and  O5_35 
REMARK    7  A    between atoms: C21_24  and  O3_25 
REMARK    8  A    between atoms: O3_25  and  C22_26 
REMARK    9  A    between atoms: C22_26  and  C23_28 
REMARK   10  A    between atoms: O7_38  and  C31_39 
ROOT
HETATM    1  C2  UNL     1      -0.749  -1.240   0.808  1.00  0.00     0.061 C 
HETATM    2  C3  UNL     1       0.659  -0.583   0.921  1.00  0.00     0.036 C 
HETATM    3  C4  UNL     1       0.884   0.371  -0.294  1.00  0.00     0.057 C 
HETATM    4  C5  UNL     1      -0.288   1.346  -0.582  1.00  0.00     0.117 C 
HETATM    5  C6  UNL     1      -1.351   1.247   0.505  1.00  0.00     0.030 C 
HETATM    6  C7  UNL     1      -1.870  -0.186   0.577  1.00  0.00     0.007 C 
HETATM    7  C9  UNL     1       2.173   1.241  -0.222  1.00  0.00     0.009 C 
HETATM    8  C10 UNL     1       3.539   0.574   0.041  1.00  0.00     0.056 C 
HETATM    9  C11 UNL     1       3.693  -0.749  -0.750  1.00  0.00     0.138 C 
HETATM   10  C12 UNL     1       2.310  -1.476  -0.652  1.00  0.00     0.087 C 
HETATM   11  C13 UNL     1       1.860  -1.564   0.827  1.00  0.00     0.120 C 
HETATM   12  C15 UNL     1       1.125  -0.742  -1.327  1.00  0.00     0.226 C 
HETATM   13  N1  UNL     1      -0.085  -1.533  -1.583  1.00  0.00     0.137 N 
HETATM   14  C16 UNL     1       0.106  -2.494  -2.659  1.00  0.00     0.285 C 
HETATM   15  C17 UNL     1      -0.678  -2.179  -0.419  1.00  0.00     0.253 C 
HETATM   16  C18 UNL     1       4.178  -0.555  -2.205  1.00  0.00     0.204 C 
HETATM   17  C19 UNL     1       4.388   0.879  -2.715  1.00  0.00     0.150 C 
HETATM   18  C20 UNL     1       4.003   1.987  -1.722  1.00  0.00     0.058 C 
HETATM   19  C21 UNL     1       4.499   1.712  -0.308  1.00  0.00     0.129 C 
HETATM   20  C29 UNL     1       2.478   2.086  -1.487  1.00  0.00     0.005 C 
HETATM   21  O6  UNL     1       3.397  -1.264  -3.143  1.00  0.00    -0.218 OA
ENDROOT
BRANCH  19  22
HETATM   22  O3  UNL     1       5.837   1.355  -0.228  1.00  0.00    -0.301 OA
BRANCH  22  23
HETATM   23  C22 UNL     1       6.679   1.884   0.716  1.00  0.00     0.296 C 
HETATM   24  O4  UNL     1       7.877   1.617   0.631  1.00  0.00    -0.259 OA
BRANCH  23  25
HETATM   25  C23 UNL     1       6.333   2.746   1.899  1.00  0.00     0.063 A 
HETATM   26  C24 UNL     1       7.240   3.739   2.299  1.00  0.00     0.005 A 
HETATM   27  C25 UNL     1       6.968   4.555   3.400  1.00  0.00     0.000 A 
HETATM   28  C26 UNL     1       5.787   4.387   4.123  1.00  0.00     0.000 A 
HETATM   29  C27 UNL     1       4.887   3.387   3.748  1.00  0.00     0.000 A 
HETATM   30  C28 UNL     1       5.166   2.567   2.654  1.00  0.00     0.005 A 
ENDBRANCH  23  25
ENDBRANCH  22  23
ENDBRANCH  19  22
BRANCH   9  31
HETATM   31  O7  UNL     1       4.532  -1.603  -0.003  1.00  0.00    -0.304 OA
BRANCH  31  32
HETATM   32  C31 UNL     1       5.885  -1.731  -0.084  1.00  0.00     0.272 C 
HETATM   33  C32 UNL     1       6.364  -2.724   0.959  1.00  0.00     0.106 C 
HETATM   34  O8  UNL     1       6.641  -1.161  -0.835  1.00  0.00    -0.264 OA
ENDBRANCH  31  32
ENDBRANCH   9  31
BRANCH  17  35
HETATM   35  O5  UNL     1       5.734   1.096  -3.070  1.00  0.00    -0.351 OA
HETATM   36  C30 UNL     1       6.103   0.545  -4.316  1.00  0.00     0.174 C 
ENDBRANCH  17  35
BRANCH   4  37
HETATM   37  O1  UNL     1      -0.808   1.126  -1.867  1.00  0.00    -0.354 OA
HETATM   38  C8  UNL     1      -1.573   2.193  -2.385  1.00  0.00     0.174 C 
ENDBRANCH   4  37
BRANCH  11  39
HETATM   39  O2  UNL     1       1.611  -2.896   1.181  1.00  0.00    -0.354 OA
HETATM   40  C14 UNL     1       2.490  -3.415   2.156  1.00  0.00     0.174 C 
ENDBRANCH  11  39
BRANCH   1  41
HETATM   41  C1  UNL     1      -1.132  -1.983   2.110  1.00  0.00     0.144 C 
BRANCH  41  42
HETATM   42  O9  UNL     1      -2.338  -2.689   1.938  1.00  0.00    -0.351 OA
HETATM   43  C33 UNL     1      -2.715  -3.393   3.103  1.00  0.00     0.174 C 
ENDBRANCH  41  42
ENDBRANCH   1  41
TORSDOF 10
