REMARK  7 active torsions:
REMARK  status: ('A' for Active; 'I' for Inactive)
REMARK    1  A    between atoms: C1_2  and  C2_3 
REMARK    2  A    between atoms: C3_4  and  C4_5 
REMARK    3  A    between atoms: C4_5  and  C5_6 
REMARK    4  A    between atoms: C6_7  and  C8_9 
REMARK    5  A    between atoms: C10_12  and  C14_18 
REMARK    6  A    between atoms: C11_13  and  C12_14 
REMARK    7  A    between atoms: C12_14  and  C13_15 
ROOT
HETATM    1  C8  UNL     1       1.737   0.569   1.094  1.00  0.00     0.057 C 
HETATM    2  C9  UNL     1       2.603   1.194   2.199  1.00  0.00     0.295 C 
HETATM    3  N1  UNL     1       2.144   2.574   2.284  1.00  0.00     0.348 N 
HETATM    4  C10 UNL     1       0.694   2.564   2.077  1.00  0.00     0.343 C 
HETATM    5  C11 UNL     1       0.371   1.250   1.329  1.00  0.00     0.061 C 
ENDROOT
BRANCH   1   6
HETATM    6  C6  UNL     1       2.282   0.738  -0.314  1.00  0.00    -0.046 C 
HETATM    7  C5  UNL     1       2.208  -0.243  -1.235  1.00  0.00    -0.030 C 
HETATM    8  C7  UNL     1       2.909   2.066  -0.677  1.00  0.00     0.026 C 
BRANCH   7   9
HETATM    9  C4  UNL     1       1.613  -1.615  -1.023  1.00  0.00     0.051 C 
BRANCH   9  10
HETATM   10  C3  UNL     1       1.107  -2.260  -2.290  1.00  0.00    -0.020 C 
HETATM   11  C2  UNL     1       0.771  -3.565  -2.404  1.00  0.00     0.039 C 
HETATM   12  C15 UNL     1       0.856  -4.554  -1.266  1.00  0.00     0.037 C 
BRANCH  11  13
HETATM   13  C1  UNL     1       0.279  -4.079  -3.709  1.00  0.00     0.206 C 
HETATM   14  O1  UNL     1      -0.065  -5.373  -3.878  1.00  0.00    -0.644 OA
HETATM   15  O6  UNL     1       0.168  -3.353  -4.690  1.00  0.00    -0.644 OA
ENDBRANCH  11  13
ENDBRANCH   9  10
ENDBRANCH   7   9
ENDBRANCH   1   6
BRANCH   5  16
HETATM   16  C12 UNL     1      -0.506   1.437   0.081  1.00  0.00     0.101 C 
BRANCH  16  17
HETATM   17  C13 UNL     1      -1.867   2.019   0.414  1.00  0.00     0.185 C 
HETATM   18  O2  UNL     1      -2.753   1.061   0.739  1.00  0.00    -0.647 OA
HETATM   19  O3  UNL     1      -2.166   3.189   0.404  1.00  0.00    -0.647 OA
ENDBRANCH  16  17
ENDBRANCH   5  16
BRANCH   4  20
HETATM   20  C14 UNL     1      -0.052   2.694   3.395  1.00  0.00     0.221 C 
HETATM   21  O4  UNL     1       0.725   3.196   4.373  1.00  0.00    -0.646 OA
HETATM   22  O5  UNL     1      -1.199   2.379   3.604  1.00  0.00    -0.646 OA
ENDBRANCH   4  20
TORSDOF 7
