REMARK  1 active torsions:
REMARK  status: ('A' for Active; 'I' for Inactive)
REMARK    1  A    between atoms: C1_1  and  O4_15 
ROOT
HETATM    1  C1  UNL     1      -0.243   0.792  -0.017  1.00  0.00     0.094 A 
HETATM    2  C2  UNL     1       0.311   2.078   0.022  1.00  0.00     0.051 A 
HETATM    3  C3  UNL     1       1.673   2.374   0.053  1.00  0.00     0.138 A 
HETATM    4  C4  UNL     1       2.550   1.281   0.042  1.00  0.00     0.087 A 
HETATM    5  C5  UNL     1       2.070  -0.044   0.008  1.00  0.00     0.102 A 
HETATM    6  C6  UNL     1       0.677  -0.282  -0.019  1.00  0.00     0.023 A 
HETATM    7  C7  UNL     1       0.236  -1.734  -0.055  1.00  0.00     0.035 C 
HETATM    8  O1  UNL     1       2.912  -1.124   0.002  1.00  0.00    -0.311 OA
HETATM    9  C8  UNL     1       4.258  -0.933   0.018  1.00  0.00     0.081 A 
HETATM   10  C9  UNL     1       4.847   0.275   0.049  1.00  0.00     0.062 A 
HETATM   11  C10 UNL     1       4.019   1.500   0.066  1.00  0.00     0.201 A 
HETATM   12  O2  UNL     1       4.562   2.599   0.097  1.00  0.00    -0.286 OA
HETATM   13  C11 UNL     1       5.088  -2.195  -0.001  1.00  0.00     0.058 C 
HETATM   14  O3  UNL     1       2.062   3.678   0.085  1.00  0.00    -0.190 OA
ENDROOT
BRANCH   1  15
HETATM   15  O4  UNL     1      -1.620   0.779  -0.042  1.00  0.00    -0.328 OA
HETATM   16  C12 UNL     1      -2.383  -0.399  -0.059  1.00  0.00     0.181 C 
ENDBRANCH   1  15
TORSDOF 1
