REMARK  4 active torsions:
REMARK  status: ('A' for Active; 'I' for Inactive)
REMARK    1  A    between atoms: C15_15  and  C18_18 
REMARK    2  A    between atoms: C18_18  and  C19_19 
REMARK    3  A    between atoms: C20_20  and  C21_21 
REMARK    4  A    between atoms: C21_21  and  C22_22 
ROOT
HETATM    1  C1  UNL     1      -2.695  -0.771   2.012  1.00  0.00     0.070 C 
HETATM    2  C2  UNL     1      -2.604  -2.279   2.104  1.00  0.00     0.173 C 
HETATM    3  C3  UNL     1      -1.293  -2.873   2.446  1.00  0.00     0.033 C 
HETATM    4  C4  UNL     1      -0.206  -2.136   2.781  1.00  0.00    -0.020 C 
HETATM    5  C5  UNL     1      -0.257  -0.621   2.881  1.00  0.00     0.020 C 
HETATM    6  C6  UNL     1      -1.321  -0.102   1.881  1.00  0.00     0.012 C 
HETATM    7  C7  UNL     1       1.145  -0.064   2.497  1.00  0.00     0.007 C 
HETATM    8  C8  UNL     1       2.400  -0.710   3.130  1.00  0.00     0.019 C 
HETATM    9  C9  UNL     1       2.207  -2.204   3.280  1.00  0.00    -0.027 C 
HETATM   10  C10 UNL     1       1.037  -2.845   3.104  1.00  0.00    -0.009 C 
HETATM   11  C11 UNL     1       3.640  -0.412   2.224  1.00  0.00     0.004 C 
HETATM   12  C12 UNL     1       3.566   0.911   1.424  1.00  0.00     0.001 C 
HETATM   13  C13 UNL     1       2.691   1.965   2.117  1.00  0.00     0.000 C 
HETATM   14  C14 UNL     1       1.268   1.470   2.435  1.00  0.00     0.001 C 
HETATM   15  C15 UNL     1       3.128   0.580  -0.024  1.00  0.00     0.004 C 
HETATM   16  C16 UNL     1       3.219  -0.956  -0.143  1.00  0.00     0.000 C 
HETATM   17  C17 UNL     1       3.972  -1.421   1.106  1.00  0.00     0.000 C 
HETATM   18  C27 UNL     1       2.696  -0.208   4.566  1.00  0.00     0.004 C 
HETATM   19  C28 UNL     1      -0.707  -0.260   4.311  1.00  0.00     0.004 C 
HETATM   20  O1  UNL     1      -3.581  -2.985   1.883  1.00  0.00    -0.291 OA
ENDROOT
BRANCH  15  21
HETATM   21  C18 UNL     1       3.940   1.288  -1.131  1.00  0.00     0.022 C 
HETATM   22  C26 UNL     1       3.895   2.822  -1.044  1.00  0.00     0.005 C 
BRANCH  21  23
HETATM   23  C19 UNL     1       3.396   0.871  -2.482  1.00  0.00    -0.031 C 
HETATM   24  C20 UNL     1       4.104   0.200  -3.401  1.00  0.00    -0.031 C 
BRANCH  24  25
HETATM   25  C21 UNL     1       3.552  -0.238  -4.738  1.00  0.00     0.022 C 
HETATM   26  C25 UNL     1       4.037  -1.661  -5.063  1.00  0.00     0.005 C 
BRANCH  25  27
HETATM   27  C22 UNL     1       3.883   0.777  -5.855  1.00  0.00     0.004 C 
HETATM   28  C23 UNL     1       3.044   2.061  -5.715  1.00  0.00     0.000 C 
HETATM   29  C24 UNL     1       5.377   1.140  -5.925  1.00  0.00     0.000 C 
ENDBRANCH  25  27
ENDBRANCH  24  25
ENDBRANCH  21  23
ENDBRANCH  15  21
TORSDOF 4
