REMARK  6 active torsions:
REMARK  status: ('A' for Active; 'I' for Inactive)
REMARK    1  A    between atoms: C1_1  and  C21_26 
REMARK    2  A    between atoms: C12_14  and  O4_18 
REMARK    3  A    between atoms: C13_15  and  C14_16 
REMARK    4  A    between atoms: O4_18  and  C15_19 
REMARK    5  A    between atoms: C15_19  and  C16_20 
REMARK    6  A    between atoms: C21_26  and  C22_27 
ROOT
HETATM    1  C1  UNL     1       0.231   4.222  -0.166  1.00  0.00     0.008 A 
HETATM    2  C2  UNL     1       0.251   4.400   1.221  1.00  0.00     0.000 A 
HETATM    3  C3  UNL     1       0.432   3.322   2.087  1.00  0.00     0.025 A 
HETATM    4  C4  UNL     1       0.614   2.025   1.602  1.00  0.00     0.105 A 
HETATM    5  C5  UNL     1       0.628   1.866   0.208  1.00  0.00     0.087 A 
HETATM    6  C6  UNL     1       0.426   2.933  -0.688  1.00  0.00     0.132 A 
HETATM    7  O1  UNL     1       0.394   2.716  -2.030  1.00  0.00    -0.190 OA
HETATM    8  C7  UNL     1       0.835   0.488  -0.311  1.00  0.00     0.201 C 
HETATM    9  C8  UNL     1       0.585  -0.615   0.654  1.00  0.00     0.062 C 
HETATM   10  C9  UNL     1       0.583  -0.265   2.013  1.00  0.00     0.103 C 
HETATM   11  O2  UNL     1       0.837   0.997   2.469  1.00  0.00    -0.307 OA
HETATM   12  C10 UNL     1       0.334  -1.288   2.928  1.00  0.00     0.022 C 
HETATM   13  C11 UNL     1       0.130  -2.612   2.531  1.00  0.00     0.002 C 
HETATM   14  C12 UNL     1       0.212  -2.964   1.174  1.00  0.00     0.089 C 
HETATM   15  C13 UNL     1       0.317  -1.930   0.221  1.00  0.00     0.038 C 
HETATM   16  C20 UNL     1      -0.140  -3.674   3.574  1.00  0.00     0.033 C 
HETATM   17  O5  UNL     1       1.214   0.273  -1.458  1.00  0.00    -0.286 OA
ENDROOT
BRANCH  14  18
HETATM   18  O4  UNL     1      -0.030  -4.266   0.813  1.00  0.00    -0.327 OA
BRANCH  18  19
HETATM   19  C15 UNL     1       1.152  -4.997   0.542  1.00  0.00     0.174 C 
BRANCH  19  20
HETATM   20  C16 UNL     1       0.889  -6.480   0.618  1.00  0.00    -0.002 C 
HETATM   21  C17 UNL     1       0.837  -7.356  -0.401  1.00  0.00    -0.045 C 
HETATM   22  C18 UNL     1       0.636  -8.833  -0.144  1.00  0.00     0.026 C 
HETATM   23  C19 UNL     1       0.988  -6.994  -1.859  1.00  0.00     0.026 C 
ENDBRANCH  19  20
ENDBRANCH  18  19
ENDBRANCH  14  18
BRANCH  15  24
HETATM   24  C14 UNL     1       0.149  -2.262  -1.251  1.00  0.00     0.211 C 
HETATM   25  O3  UNL     1      -0.729  -1.340  -1.887  1.00  0.00    -0.215 OA
ENDBRANCH  15  24
BRANCH   1  26
HETATM   26  C21 UNL     1       0.045   5.441  -1.047  1.00  0.00     0.054 C 
BRANCH  26  27
HETATM   27  C22 UNL     1      -1.194   6.225  -0.698  1.00  0.00    -0.030 C 
HETATM   28  C23 UNL     1      -1.436   7.499  -1.055  1.00  0.00    -0.048 C 
HETATM   29  C24 UNL     1      -2.711   8.202  -0.650  1.00  0.00     0.026 C 
HETATM   30  C25 UNL     1      -0.494   8.339  -1.884  1.00  0.00     0.026 C 
ENDBRANCH  26  27
ENDBRANCH   1  26
TORSDOF 6
