REMARK  1 active torsions:
REMARK  status: ('A' for Active; 'I' for Inactive)
REMARK    1  A    between atoms: C23_24  and  C25_27 
ROOT
HETATM    1  C1  UNL     1      -0.974  -2.546  -2.729  1.00  0.00     0.033 C 
HETATM    2  C2  UNL     1      -2.025  -3.092  -1.771  1.00  0.00     0.152 C 
HETATM    3  C3  UNL     1      -1.494  -3.195  -0.339  1.00  0.00     0.033 C 
HETATM    4  C4  UNL     1      -0.140  -2.485  -0.137  1.00  0.00     0.003 C 
HETATM    5  C5  UNL     1      -0.097  -1.064  -0.755  1.00  0.00     0.000 C 
HETATM    6  C6  UNL     1      -0.404  -1.190  -2.277  1.00  0.00     0.003 C 
HETATM    7  C7  UNL     1       1.331  -0.465  -0.539  1.00  0.00     0.000 C 
HETATM    8  C8  UNL     1       1.802  -0.526   0.928  1.00  0.00     0.000 C 
HETATM    9  C9  UNL     1       1.689  -1.944   1.511  1.00  0.00     0.000 C 
HETATM   10  C10 UNL     1       0.275  -2.509   1.343  1.00  0.00     0.000 C 
HETATM   11  C11 UNL     1       3.208   0.064   1.153  1.00  0.00     0.003 C 
HETATM   12  C12 UNL     1       3.441   1.470   0.518  1.00  0.00     0.003 C 
HETATM   13  C13 UNL     1       2.918   1.492  -0.931  1.00  0.00     0.000 C 
HETATM   14  C14 UNL     1       1.476   0.980  -1.056  1.00  0.00     0.000 C 
HETATM   15  C15 UNL     1       4.966   1.504   0.693  1.00  0.00     0.032 C 
HETATM   16  C16 UNL     1       5.430   0.167   0.159  1.00  0.00     0.117 C 
HETATM   17  C17 UNL     1       4.435  -0.816   0.767  1.00  0.00     0.030 C 
HETATM   18  O1  UNL     1       6.766   0.116   0.534  1.00  0.00    -0.339 OA
HETATM   19  C18 UNL     1       7.264   1.440   0.375  1.00  0.00     0.200 C 
HETATM   20  C19 UNL     1       6.054   2.392   0.091  1.00  0.00     0.051 C 
HETATM   21  C20 UNL     1       5.818   2.858  -1.349  1.00  0.00     0.005 C 
HETATM   22  C21 UNL     1       8.400   1.463  -0.643  1.00  0.00     0.198 C 
HETATM   23  C22 UNL     1       9.619   0.659  -0.191  1.00  0.00     0.042 C 
HETATM   24  C23 UNL     1      10.107   1.145   1.181  1.00  0.00     0.060 C 
HETATM   25  C24 UNL     1       8.938   1.051   2.171  1.00  0.00     0.125 C 
HETATM   26  N1  UNL     1       7.793   1.825   1.698  1.00  0.00    -0.271 NA
HETATM   27  O3  UNL     1       7.980   0.951  -1.886  1.00  0.00    -0.219 OA
HETATM   28  C26 UNL     1       2.800   2.607   1.337  1.00  0.00     0.000 C 
HETATM   29  C27 UNL     1      -1.172  -0.155  -0.106  1.00  0.00     0.000 C 
HETATM   30  O4  UNL     1      -3.167  -2.269  -1.817  1.00  0.00    -0.224 OA
ENDROOT
BRANCH  24  31
HETATM   31  C25 UNL     1      11.323   0.348   1.653  1.00  0.00     0.184 C 
HETATM   32  O2  UNL     1      11.814   0.887   2.864  1.00  0.00    -0.221 OA
ENDBRANCH  24  31
TORSDOF 1
