REMARK  5 active torsions:
REMARK  status: ('A' for Active; 'I' for Inactive)
REMARK    1  A    between atoms: C15_15  and  C18_18 
REMARK    2  A    between atoms: C18_18  and  C20_20 
REMARK    3  A    between atoms: C20_20  and  C21_21 
REMARK    4  A    between atoms: C22_22  and  C23_23 
REMARK    5  A    between atoms: C23_23  and  O1_26 
ROOT
HETATM    1  C1  UNL     1      -1.989   1.236  -2.056  1.00  0.00     0.065 C 
HETATM    2  C2  UNL     1      -2.737  -0.077  -2.178  1.00  0.00     0.150 C 
HETATM    3  C3  UNL     1      -2.407  -1.178  -1.173  1.00  0.00     0.051 C 
HETATM    4  C4  UNL     1      -0.941  -0.996  -0.667  1.00  0.00     0.006 C 
HETATM    5  C5  UNL     1      -0.597   0.385  -0.017  1.00  0.00     0.001 C 
HETATM    6  C6  UNL     1      -1.515   1.492  -0.622  1.00  0.00     0.008 C 
HETATM    7  C7  UNL     1       0.905   0.778  -0.253  1.00  0.00     0.000 C 
HETATM    8  C8  UNL     1       1.972  -0.366  -0.319  1.00  0.00     0.000 C 
HETATM    9  C9  UNL     1       1.503  -1.522  -1.237  1.00  0.00     0.000 C 
HETATM   10  C10 UNL     1       0.082  -1.342  -1.775  1.00  0.00     0.000 C 
HETATM   11  C11 UNL     1       3.302   0.270  -0.873  1.00  0.00     0.000 C 
HETATM   12  C12 UNL     1       3.822   1.342   0.119  1.00  0.00     0.002 C 
HETATM   13  C13 UNL     1       2.812   2.487   0.252  1.00  0.00     0.000 C 
HETATM   14  C14 UNL     1       1.417   1.949   0.628  1.00  0.00     0.000 C 
HETATM   15  C15 UNL     1       5.260   1.665  -0.339  1.00  0.00     0.028 C 
HETATM   16  C16 UNL     1       5.750   0.334  -0.957  1.00  0.00     0.003 C 
HETATM   17  C17 UNL     1       4.552  -0.637  -0.935  1.00  0.00     0.000 C 
HETATM   18  C26 UNL     1       3.132   0.849  -2.312  1.00  0.00     0.000 C 
HETATM   19  C27 UNL     1       2.157  -1.025   1.077  1.00  0.00     0.000 C 
HETATM   20  C28 UNL     1      -0.893   0.371   1.506  1.00  0.00     0.000 C 
HETATM   21  C29 UNL     1      -2.631  -2.553  -1.853  1.00  0.00     0.007 C 
HETATM   22  C30 UNL     1      -3.467  -1.119  -0.050  1.00  0.00     0.007 C 
HETATM   23  O4  UNL     1      -3.573  -0.227  -3.041  1.00  0.00    -0.296 OA
ENDROOT
BRANCH  15  24
HETATM   24  C18 UNL     1       6.227   2.322   0.670  1.00  0.00     0.131 C 
HETATM   25  C19 UNL     1       7.472   2.827  -0.072  1.00  0.00     0.033 C 
HETATM   26  O3  UNL     1       5.592   3.475   1.165  1.00  0.00    -0.226 OA
BRANCH  24  27
HETATM   27  C20 UNL     1       6.608   1.484   1.905  1.00  0.00     0.056 C 
BRANCH  27  28
HETATM   28  C21 UNL     1       7.692   0.457   1.692  1.00  0.00    -0.026 C 
HETATM   29  C22 UNL     1       7.538  -0.862   1.882  1.00  0.00    -0.001 C 
BRANCH  29  30
HETATM   30  C23 UNL     1       8.629  -1.878   1.580  1.00  0.00     0.148 C 
HETATM   31  C24 UNL     1       8.052  -3.292   1.729  1.00  0.00     0.038 C 
HETATM   32  C25 UNL     1       9.802  -1.661   2.544  1.00  0.00     0.038 C 
BRANCH  30  33
HETATM   33  O1  UNL     1       9.033  -1.659   0.242  1.00  0.00    -0.190 OA
HETATM   34  O2  UNL     1      10.074  -2.644  -0.080  1.00  0.00    -0.035 OA
ENDBRANCH  30  33
ENDBRANCH  29  30
ENDBRANCH  27  28
ENDBRANCH  24  27
ENDBRANCH  15  24
TORSDOF 5
