REMARK  2 active torsions:
REMARK  status: ('A' for Active; 'I' for Inactive)
REMARK    1  A    between atoms: C8_9  and  C10_12 
REMARK    2  A    between atoms: C10_12  and  C11_13 
ROOT
HETATM    1  O1  UNL     1      -0.241   1.975   1.774  1.00  0.00    -0.333 OA
HETATM    2  C1  UNL     1      -1.615   1.741   1.798  1.00  0.00     0.129 C 
HETATM    3  C2  UNL     1      -1.906   0.336   2.324  1.00  0.00     0.090 C 
HETATM    4  C3  UNL     1      -1.218  -0.685   1.430  1.00  0.00     0.179 C 
HETATM    5  C4  UNL     1       0.071  -0.249   0.829  1.00  0.00     0.083 A 
HETATM    6  C5  UNL     1       0.509   1.061   1.082  1.00  0.00     0.101 A 
HETATM    7  C6  UNL     1       1.732   1.452   0.507  1.00  0.00     0.045 A 
HETATM    8  C7  UNL     1       2.512   0.596  -0.288  1.00  0.00     0.098 A 
HETATM    9  C8  UNL     1       2.057  -0.722  -0.456  1.00  0.00     0.048 A 
HETATM   10  C9  UNL     1       0.838  -1.160   0.081  1.00  0.00     0.137 A 
HETATM   11  O2  UNL     1       0.435  -2.448  -0.102  1.00  0.00    -0.190 OA
HETATM   12  O3  UNL     1       3.703   0.999  -0.836  1.00  0.00    -0.332 OA
HETATM   13  C18 UNL     1       4.404   2.010  -0.161  1.00  0.00     0.117 C 
HETATM   14  C19 UNL     1       3.478   3.107   0.306  1.00  0.00     0.001 C 
HETATM   15  C20 UNL     1       2.211   2.830   0.661  1.00  0.00     0.002 C 
HETATM   16  C21 UNL     1       5.442   2.577  -1.136  1.00  0.00     0.035 C 
HETATM   17  C22 UNL     1       5.112   1.404   1.057  1.00  0.00     0.035 C 
HETATM   18  O4  UNL     1      -1.726  -1.788   1.269  1.00  0.00    -0.291 OA
HETATM   19  C23 UNL     1      -1.499   0.103   3.787  1.00  0.00     0.011 C 
HETATM   20  C24 UNL     1      -2.287   2.849   2.609  1.00  0.00     0.033 C 
ENDROOT
BRANCH   9  21
HETATM   21  C10 UNL     1       2.866  -1.692  -1.254  1.00  0.00     0.004 C 
HETATM   22  C17 UNL     1       4.137  -1.964  -0.898  1.00  0.00     0.000 C 
BRANCH  21  23
HETATM   23  C11 UNL     1       2.211  -2.403  -2.378  1.00  0.00     0.000 A 
HETATM   24  C12 UNL     1       2.443  -3.768  -2.600  1.00  0.00     0.000 A 
HETATM   25  C13 UNL     1       1.753  -4.454  -3.600  1.00  0.00     0.000 A 
HETATM   26  C14 UNL     1       0.812  -3.787  -4.387  1.00  0.00     0.000 A 
HETATM   27  C15 UNL     1       0.559  -2.433  -4.161  1.00  0.00     0.000 A 
HETATM   28  C16 UNL     1       1.249  -1.748  -3.159  1.00  0.00     0.000 A 
ENDBRANCH  21  23
ENDBRANCH   9  21
TORSDOF 2
