REMARK  1 active torsions:
REMARK  status: ('A' for Active; 'I' for Inactive)
REMARK    1  A    between atoms: C10_11  and  C11_12 
ROOT
HETATM    1  C1  UNL     1       0.926   2.723  -0.955  1.00  0.00     0.055 C 
HETATM    2  C2  UNL     1       1.993   1.704  -1.258  1.00  0.00    -0.046 C 
HETATM    3  C3  UNL     1       1.752   0.385  -1.203  1.00  0.00    -0.035 C 
HETATM    4  C4  UNL     1       0.422  -0.242  -0.869  1.00  0.00     0.026 C 
HETATM    5  C5  UNL     1      -0.711   0.811  -0.793  1.00  0.00     0.063 C 
HETATM    6  C6  UNL     1      -0.225   2.117  -0.156  1.00  0.00     0.159 C 
HETATM    7  O1  UNL     1       0.237   1.904   1.158  1.00  0.00    -0.223 OA
HETATM    8  C7  UNL     1      -2.047   0.248  -0.254  1.00  0.00     0.130 C 
HETATM    9  C8  UNL     1      -2.083  -1.265  -0.492  1.00  0.00     0.031 C 
HETATM   10  C9  UNL     1      -0.936  -2.011   0.216  1.00  0.00     0.003 C 
HETATM   11  C10 UNL     1       0.369  -1.190   0.350  1.00  0.00     0.004 C 
HETATM   12  O2  UNL     1      -3.087   0.812  -1.019  1.00  0.00    -0.226 OA
HETATM   13  C14 UNL     1      -2.403   0.556   1.203  1.00  0.00     0.033 C 
HETATM   14  C15 UNL     1       3.331   2.250  -1.694  1.00  0.00     0.026 C 
ENDROOT
BRANCH  11  15
HETATM   15  C11 UNL     1       1.624  -2.065   0.603  1.00  0.00     0.000 C 
HETATM   16  C12 UNL     1       2.753  -1.276   1.305  1.00  0.00     0.000 C 
HETATM   17  C13 UNL     1       1.342  -3.299   1.486  1.00  0.00     0.000 C 
ENDBRANCH  11  15
TORSDOF 1
