REMARK  0 active torsions:
REMARK  status: ('A' for Active; 'I' for Inactive)
ROOT
HETATM    1  C1  UNL     1      -0.961   1.138   1.170  1.00  0.00     0.068 A 
HETATM    2  C2  UNL     1      -1.736   0.794  -0.069  1.00  0.00     0.108 A 
HETATM    3  C3  UNL     1      -0.933   0.764  -1.373  1.00  0.00     0.135 C 
HETATM    4  C4  UNL     1       0.481   0.220  -1.126  1.00  0.00     0.031 C 
HETATM    5  C5  UNL     1       1.309   1.039  -0.117  1.00  0.00     0.033 C 
HETATM    6  C6  UNL     1       0.496   1.572   1.078  1.00  0.00     0.155 C 
HETATM    7  O1  UNL     1       1.164   1.335   2.304  1.00  0.00    -0.223 OA
HETATM    8  C7  UNL     1       2.485   0.087   0.184  1.00  0.00     0.003 C 
HETATM    9  C8  UNL     1       1.976  -1.363   0.024  1.00  0.00     0.000 C 
HETATM   10  C9  UNL     1       0.569  -1.220  -0.595  1.00  0.00     0.003 C 
HETATM   11  C10 UNL     1       2.899  -2.169  -0.911  1.00  0.00     0.000 C 
HETATM   12  C11 UNL     1       1.920  -2.080   1.385  1.00  0.00     0.000 C 
HETATM   13  O2  UNL     1      -0.773   2.076  -1.882  1.00  0.00    -0.226 OA
HETATM   14  C12 UNL     1      -1.609  -0.019  -2.504  1.00  0.00     0.034 C 
HETATM   15  C13 UNL     1      -2.660  -0.278   0.298  1.00  0.00     0.273 A 
HETATM   16  O3  UNL     1      -2.459  -0.609   1.608  1.00  0.00    -0.302 OA
HETATM   17  C14 UNL     1      -1.427   0.149   2.215  1.00  0.00     0.155 A 
HETATM   18  O4  UNL     1      -3.480  -0.804  -0.420  1.00  0.00    -0.264 OA
HETATM   19  C15 UNL     1      -1.992   2.105   0.635  1.00  0.00     0.018 A 
ENDROOT
TORSDOF 0
