REMARK  5 active torsions:
REMARK  status: ('A' for Active; 'I' for Inactive)
REMARK    1  A    between atoms: C3_3  and  C21_25 
REMARK    2  A    between atoms: C8_9  and  C10_12 
REMARK    3  A    between atoms: C12_14  and  C16_19 
REMARK    4  A    between atoms: C16_19  and  C17_20 
REMARK    5  A    between atoms: C21_25  and  C22_26 
ROOT
HETATM    1  C1  UNL     1      -0.818   1.968   0.527  1.00  0.00     0.055 A 
HETATM    2  C2  UNL     1      -1.417   0.711   0.557  1.00  0.00     0.131 A 
HETATM    3  C3  UNL     1      -0.610  -0.441   0.496  1.00  0.00     0.030 A 
HETATM    4  C4  UNL     1       0.791  -0.321   0.399  1.00  0.00     0.103 A 
HETATM    5  C5  UNL     1       1.347   0.974   0.372  1.00  0.00     0.087 A 
HETATM    6  C6  UNL     1       0.562   2.136   0.445  1.00  0.00     0.138 A 
HETATM    7  O1  UNL     1       1.073   3.396   0.418  1.00  0.00    -0.190 OA
HETATM    8  C7  UNL     1       2.822   1.110   0.278  1.00  0.00     0.201 C 
HETATM    9  C8  UNL     1       3.592  -0.154   0.366  1.00  0.00     0.064 C 
HETATM   10  C9  UNL     1       2.924  -1.323   0.387  1.00  0.00     0.126 C 
HETATM   11  O2  UNL     1       1.570  -1.440   0.295  1.00  0.00    -0.305 OA
HETATM   12  O4  UNL     1       3.395   2.195   0.232  1.00  0.00    -0.286 OA
HETATM   13  O5  UNL     1      -2.775   0.633   0.593  1.00  0.00    -0.190 OA
ENDROOT
BRANCH   9  14
HETATM   14  C10 UNL     1       5.076  -0.081   0.429  1.00  0.00     0.005 A 
HETATM   15  C11 UNL     1       5.795   0.735  -0.450  1.00  0.00    -0.002 A 
HETATM   16  C12 UNL     1       7.184   0.908  -0.369  1.00  0.00     0.008 A 
HETATM   17  C13 UNL     1       7.888   0.237   0.645  1.00  0.00     0.127 A 
HETATM   18  C14 UNL     1       7.174  -0.620   1.492  1.00  0.00     0.027 A 
HETATM   19  O3  UNL     1       9.223   0.390   0.852  1.00  0.00    -0.191 OA
HETATM   20  C15 UNL     1       5.796  -0.802   1.385  1.00  0.00     0.002 A 
BRANCH  16  21
HETATM   21  C16 UNL     1       7.804   1.866  -1.371  1.00  0.00     0.054 C 
BRANCH  21  22
HETATM   22  C17 UNL     1       9.305   1.967  -1.436  1.00  0.00    -0.030 C 
HETATM   23  C18 UNL     1      10.045   3.091  -1.485  1.00  0.00    -0.048 C 
HETATM   24  C19 UNL     1      11.554   3.026  -1.550  1.00  0.00     0.026 C 
HETATM   25  C20 UNL     1       9.497   4.500  -1.497  1.00  0.00     0.026 C 
ENDBRANCH  21  22
ENDBRANCH  16  21
ENDBRANCH   9  14
BRANCH   3  26
HETATM   26  C21 UNL     1      -1.337  -1.778   0.473  1.00  0.00     0.056 C 
BRANCH  26  27
HETATM   27  C22 UNL     1      -0.616  -3.030   0.897  1.00  0.00    -0.030 C 
HETATM   28  C23 UNL     1      -0.835  -4.268   0.416  1.00  0.00    -0.048 C 
HETATM   29  C24 UNL     1      -0.060  -5.459   0.933  1.00  0.00     0.026 C 
HETATM   30  C25 UNL     1      -1.858  -4.615  -0.641  1.00  0.00     0.026 C 
ENDBRANCH  26  27
ENDBRANCH   3  26
TORSDOF 5
