REMARK  8 active torsions:
REMARK  status: ('A' for Active; 'I' for Inactive)
REMARK    1  A    between atoms: C9_9  and  O2_15 
REMARK    2  A    between atoms: C11_11  and  O1_12 
REMARK    3  A    between atoms: N1_19  and  C31_40 
REMARK    4  A    between atoms: C17_21  and  O5_27 
REMARK    5  A    between atoms: C20_24  and  O4_25 
REMARK    6  A    between atoms: O5_27  and  C22_28 
REMARK    7  A    between atoms: C22_28  and  C23_30 
REMARK    8  A    between atoms: C28_35  and  N2_36 
REMARK       I    between atoms: N2_36  and  C29_37 
ROOT
HETATM    1  C1  UNL     1       3.084   0.898  -0.582  1.00  0.00     0.058 C 
HETATM    2  C2  UNL     1       1.557   0.931  -0.627  1.00  0.00     0.009 C 
HETATM    3  C3  UNL     1       0.751  -0.036   0.286  1.00  0.00     0.048 C 
HETATM    4  C4  UNL     1       1.466  -0.345   1.809  1.00  0.00     0.034 C 
HETATM    5  C5  UNL     1       2.900  -0.933   1.659  1.00  0.00     0.037 C 
HETATM    6  C6  UNL     1       2.898  -1.443   0.231  1.00  0.00     0.171 C 
HETATM    7  C7  UNL     1       3.583  -0.527  -0.789  1.00  0.00     0.159 C 
HETATM    8  C8  UNL     1       3.491  -1.081  -2.230  1.00  0.00     0.063 C 
HETATM    9  C9  UNL     1       3.217  -0.090  -3.369  1.00  0.00     0.120 C 
HETATM   10  C10 UNL     1       2.634   1.225  -2.838  1.00  0.00     0.055 C 
HETATM   11  C11 UNL     1       3.491   1.825  -1.724  1.00  0.00     0.120 C 
HETATM   12  C13 UNL     1       1.273   0.958  -2.143  1.00  0.00     0.005 C 
HETATM   13  O3  UNL     1       4.954  -0.514  -0.464  1.00  0.00    -0.223 OA
HETATM   14  C15 UNL     1       1.364  -1.594   0.066  1.00  0.00     0.110 C 
HETATM   15  N1  UNL     1       0.856  -2.732   0.929  1.00  0.00    -0.366 N 
HETATM   16  C16 UNL     1       0.778  -2.589   2.422  1.00  0.00     0.125 C 
HETATM   17  C17 UNL     1       0.368  -1.177   2.919  1.00  0.00     0.122 C 
HETATM   18  C18 UNL     1      -1.485  -0.713   3.078  1.00  0.00     0.032 C 
HETATM   19  C19 UNL     1      -2.220   0.272   1.647  1.00  0.00     0.032 C 
HETATM   20  C20 UNL     1      -1.046   0.689   0.229  1.00  0.00     0.117 C 
HETATM   21  O8  UNL     1       3.626  -2.636   0.176  1.00  0.00    -0.222 OA
ENDROOT
BRANCH  17  22
HETATM   22  O5  UNL     1       0.841  -0.849   4.182  1.00  0.00    -0.301 OA
BRANCH  22  23
HETATM   23  C22 UNL     1       0.838   0.505   4.502  1.00  0.00     0.298 C 
HETATM   24  O6  UNL     1       1.139   0.752   5.670  1.00  0.00    -0.259 OA
BRANCH  23  25
HETATM   25  C23 UNL     1       0.560   1.734   3.619  1.00  0.00     0.093 C 
HETATM   26  C24 UNL     1       0.939   2.939   4.227  1.00  0.00     0.008 C 
HETATM   27  C25 UNL     1       0.924   4.155   3.548  1.00  0.00     0.000 C 
HETATM   28  C26 UNL     1       0.594   4.111   2.209  1.00  0.00     0.003 C 
HETATM   29  C27 UNL     1       0.202   2.905   1.604  1.00  0.00     0.032 C 
HETATM   30  C28 UNL     1       0.060   1.651   2.238  1.00  0.00     0.140 C 
BRANCH  30  31
HETATM   31  N2  UNL     1      -0.362   0.334   1.948  1.00  0.00    -0.368 NA
HETATM   32  C29 UNL     1      -0.924  -1.093   1.067  1.00  0.00     0.305 C 
HETATM   33  O7  UNL     1      -1.406  -2.117   1.534  1.00  0.00    -0.256 OA
HETATM   34  C30 UNL     1      -1.210  -1.377  -0.490  1.00  0.00     0.115 C 
ENDBRANCH  30  31
ENDBRANCH  23  25
ENDBRANCH  22  23
ENDBRANCH  17  22
BRANCH  15  35
HETATM   35  C31 UNL     1       1.294  -4.090   0.607  1.00  0.00     0.097 C 
HETATM   36  C32 UNL     1       1.266  -4.473  -0.882  1.00  0.00     0.026 C 
ENDBRANCH  15  35
BRANCH  20  37
HETATM   37  O4  UNL     1      -1.635   0.907  -1.053  1.00  0.00    -0.354 OA
HETATM   38  C21 UNL     1      -2.734   1.798  -1.083  1.00  0.00     0.174 C 
ENDBRANCH  20  37
BRANCH  11  39
HETATM   39  O1  UNL     1       4.874   1.768  -1.913  1.00  0.00    -0.354 OA
HETATM   40  C12 UNL     1       5.350   2.763  -2.792  1.00  0.00     0.174 C 
ENDBRANCH  11  39
BRANCH   9  41
HETATM   41  O2  UNL     1       4.376   0.171  -4.117  1.00  0.00    -0.354 OA
HETATM   42  C14 UNL     1       4.629  -0.788  -5.122  1.00  0.00     0.174 C 
ENDBRANCH   9  41
TORSDOF 8
