REMARK  7 active torsions:
REMARK  status: ('A' for Active; 'I' for Inactive)
REMARK    1  A    between atoms: C4_4  and  C7_7 
REMARK    2  A    between atoms: C7_7  and  C8_8 
REMARK    3  A    between atoms: C8_8  and  C9_9 
REMARK    4  A    between atoms: C9_9  and  C10_10 
REMARK    5  A    between atoms: C16_17  and  C25_29 
REMARK    6  A    between atoms: C17_18  and  C18_19 
REMARK    7  A    between atoms: C18_19  and  C19_20 
ROOT
HETATM    1  C10 UNL     1       3.947  -0.124   0.528  1.00  0.00     0.001 C 
HETATM    2  C11 UNL     1       5.391  -0.409   0.185  1.00  0.00     0.007 C 
HETATM    3  C12 UNL     1       6.314   0.758  -0.131  1.00  0.00     0.050 A 
HETATM    4  C13 UNL     1       5.621   1.683  -1.119  1.00  0.00     0.119 A 
HETATM    5  C14 UNL     1       4.130   1.908  -1.081  1.00  0.00     0.030 C 
HETATM    6  C15 UNL     1       3.322   1.114  -0.079  1.00  0.00     0.003 C 
HETATM    7  O1  UNL     1       6.288   1.722  -2.381  1.00  0.00    -0.355 OA
HETATM    8  C16 UNL     1       7.498   0.953  -2.330  1.00  0.00     0.136 A 
HETATM    9  C17 UNL     1       7.514   0.319  -0.954  1.00  0.00     0.010 A 
ENDROOT
BRANCH   1  10
HETATM   10  C9  UNL     1       3.206  -1.020   1.492  1.00  0.00     0.008 C 
BRANCH  10  11
HETATM   11  C8  UNL     1       2.046  -0.323   2.223  1.00  0.00     0.069 C 
BRANCH  11  12
HETATM   12  C7  UNL     1       1.300  -1.185   3.234  1.00  0.00     0.175 C 
HETATM   13  O6  UNL     1       1.666  -2.342   3.396  1.00  0.00    -0.291 OA
BRANCH  12  14
HETATM   14  C4  UNL     1       0.152  -0.599   3.987  1.00  0.00     0.060 A 
HETATM   15  C3  UNL     1      -0.599  -1.366   4.901  1.00  0.00     0.136 A 
HETATM   16  C2  UNL     1      -1.663  -0.741   5.566  1.00  0.00     0.055 A 
HETATM   17  O7  UNL     1      -0.360  -2.679   5.172  1.00  0.00    -0.190 OA
HETATM   18  C1  UNL     1      -2.019   0.596   5.378  1.00  0.00     0.133 A 
HETATM   19  C6  UNL     1      -1.261   1.335   4.467  1.00  0.00     0.028 A 
HETATM   20  O8  UNL     1      -3.058   1.163   6.045  1.00  0.00    -0.190 OA
HETATM   21  C5  UNL     1      -0.198   0.749   3.785  1.00  0.00     0.007 A 
ENDBRANCH  12  14
ENDBRANCH  11  12
ENDBRANCH  10  11
ENDBRANCH   1  10
BRANCH   9  22
HETATM   22  C18 UNL     1       8.421  -0.827  -0.524  1.00  0.00     0.123 C 
HETATM   23  O4  UNL     1       8.631  -1.038   0.756  1.00  0.00    -0.191 OA
BRANCH  22  24
HETATM   24  C19 UNL     1       9.075  -1.651  -1.544  1.00  0.00     0.024 C 
HETATM   25  C20 UNL     1       8.870  -1.367  -3.010  1.00  0.00     0.033 C 
HETATM   26  C21 UNL     1      10.107  -1.080  -3.829  1.00  0.00     0.038 C 
HETATM   27  C22 UNL     1      11.435  -1.454  -3.211  1.00  0.00     0.159 C 
HETATM   28  C23 UNL     1      11.373  -2.551  -2.176  1.00  0.00     0.087 C 
HETATM   29  O3  UNL     1      12.616  -1.082  -3.762  1.00  0.00    -0.223 OA
HETATM   30  C24 UNL     1      10.248  -2.530  -1.167  1.00  0.00     0.109 C 
HETATM   31  O2  UNL     1      10.418  -3.043   0.079  1.00  0.00    -0.195 OA
ENDBRANCH  22  24
ENDBRANCH   9  22
BRANCH   8  32
HETATM   32  C25 UNL     1       8.697   1.810  -2.696  1.00  0.00     0.031 C 
HETATM   33  C26 UNL     1       8.668   2.476  -3.970  1.00  0.00     0.005 C 
HETATM   34  C27 UNL     1       9.890   3.202  -4.466  1.00  0.00     0.033 C 
HETATM   35  C28 UNL     1      11.234   2.683  -3.998  1.00  0.00     0.152 C 
HETATM   36  C29 UNL     1      11.151   2.509  -2.495  1.00  0.00     0.033 C 
HETATM   37  O5  UNL     1      11.621   1.548  -4.648  1.00  0.00    -0.224 OA
HETATM   38  C30 UNL     1       9.944   1.798  -1.943  1.00  0.00     0.005 C 
ENDBRANCH   8  32
TORSDOF 7
