REMARK  1 active torsions:
REMARK  status: ('A' for Active; 'I' for Inactive)
REMARK    1  A    between atoms: C4_4  and  C7_8 
ROOT
HETATM    1  C1  UNL     1      -1.266  -1.331  -0.843  1.00  0.00    -0.014 A 
HETATM    2  C2  UNL     1      -0.288  -1.636  -1.793  1.00  0.00     0.023 A 
HETATM    3  C3  UNL     1       1.040  -1.199  -1.714  1.00  0.00     0.127 A 
HETATM    4  C4  UNL     1       1.437  -0.412  -0.618  1.00  0.00     0.006 A 
HETATM    5  C5  UNL     1       0.462  -0.133   0.353  1.00  0.00     0.004 A 
HETATM    6  C6  UNL     1      -0.861  -0.566   0.254  1.00  0.00     0.030 A 
HETATM    7 BR1  UNL     1      -2.063  -0.099   1.641  1.00  0.00    -0.050 Br
HETATM    8  O1  UNL     1       1.904  -1.619  -2.674  1.00  0.00    -0.191 OA
HETATM    9  C15 UNL     1      -2.677  -1.846  -1.006  1.00  0.00     0.032 C 
ENDROOT
BRANCH   4  10
HETATM   10  C7  UNL     1       2.853   0.126  -0.388  1.00  0.00     0.036 C 
HETATM   11  C8  UNL     1       2.831   1.499   0.267  1.00  0.00    -0.041 C 
HETATM   12  C9  UNL     1       2.132   2.545  -0.196  1.00  0.00    -0.009 C 
HETATM   13  C10 UNL     1       3.753   1.566   1.464  1.00  0.00     0.019 C 
HETATM   14  C11 UNL     1       4.533   0.241   1.389  1.00  0.00     0.005 C 
HETATM   15  C13 UNL     1       2.978   1.717   2.779  1.00  0.00     0.004 C 
HETATM   16  C12 UNL     1       3.571  -0.726   0.681  1.00  0.00     0.008 C 
HETATM   17  C14 UNL     1       3.739   0.301  -1.639  1.00  0.00     0.009 C 
ENDBRANCH   4  10
TORSDOF 1
