REMARK  2 active torsions:
REMARK  status: ('A' for Active; 'I' for Inactive)
REMARK    1  A    between atoms: C2_2  and  O3_13 
REMARK    2  A    between atoms: C6_6  and  C7_7 
ROOT
HETATM    1  C1  UNL     1       1.796   0.393  -0.124  1.00  0.00     0.026 A 
HETATM    2  C2  UNL     1       0.816   1.402  -0.104  1.00  0.00     0.118 A 
HETATM    3  C3  UNL     1      -0.498   0.925  -0.021  1.00  0.00     0.141 A 
HETATM    4  C4  UNL     1      -0.796  -0.436   0.035  1.00  0.00     0.121 A 
HETATM    5  C5  UNL     1       0.190  -1.414   0.012  1.00  0.00     0.026 A 
HETATM    6  C6  UNL     1       1.526  -0.985  -0.044  1.00  0.00     0.004 A 
HETATM    7  O1  UNL     1      -2.165  -0.612   0.105  1.00  0.00    -0.299 OA
HETATM    8  C10 UNL     1      -2.770   0.683   0.104  1.00  0.00     0.304 A 
HETATM    9  O2  UNL     1      -1.694   1.622   0.023  1.00  0.00    -0.298 OA
ENDROOT
BRANCH   6  10
HETATM   10  C7  UNL     1       2.584  -2.011  -0.083  1.00  0.00    -0.004 C 
HETATM   11  C8  UNL     1       3.880  -1.801   0.221  1.00  0.00    -0.026 C 
HETATM   12  C9  UNL     1       4.930  -2.880   0.186  1.00  0.00     0.031 C 
ENDBRANCH   6  10
BRANCH   2  13
HETATM   13  O3  UNL     1       1.212   2.712  -0.197  1.00  0.00    -0.326 OA
HETATM   14  C11 UNL     1       0.233   3.721  -0.241  1.00  0.00     0.181 C 
ENDBRANCH   2  13
TORSDOF 2
