REMARK  2 active torsions:
REMARK  status: ('A' for Active; 'I' for Inactive)
REMARK    1  A    between atoms: C2_2  and  O1_30 
REMARK    2  A    between atoms: O1_30  and  C30_31 
ROOT
HETATM    1  C1  UNL     1      -0.151  -1.249  -0.918  1.00  0.00     0.028 C 
HETATM    2  C2  UNL     1       0.066  -2.000   0.965  1.00  0.00     0.101 A 
HETATM    3  C3  UNL     1      -1.095  -2.920   1.422  1.00  0.00     0.026 A 
HETATM    4  C4  UNL     1      -1.249  -2.431   0.033  1.00  0.00     0.029 A 
HETATM    5  C5  UNL     1      -1.101  -0.575   0.294  1.00  0.00     0.017 C 
HETATM    6  C6  UNL     1      -1.302  -0.269  -1.133  1.00  0.00     0.006 C 
HETATM    7  C7  UNL     1       0.580   0.047   0.470  1.00  0.00    -0.053 C 
HETATM    8  C8  UNL     1       1.719  -0.685   0.074  1.00  0.00    -0.053 C 
HETATM    9  C9  UNL     1       1.717  -2.253  -0.662  1.00  0.00     0.021 C 
HETATM   10  C10 UNL     1       0.277  -3.229  -0.675  1.00  0.00     0.007 C 
HETATM   11  C11 UNL     1       3.092  -0.024   0.240  1.00  0.00     0.015 C 
HETATM   12  C12 UNL     1       2.885   1.463  -0.155  1.00  0.00     0.004 C 
HETATM   13  C13 UNL     1       2.015   2.160   0.898  1.00  0.00     0.005 C 
HETATM   14  C14 UNL     1       0.639   1.474   0.977  1.00  0.00     0.021 C 
HETATM   15  C15 UNL     1       4.109   2.276  -0.679  1.00  0.00     0.000 C 
HETATM   16  C16 UNL     1       5.482   1.725  -0.233  1.00  0.00     0.000 C 
HETATM   17  C17 UNL     1       5.548   0.187  -0.433  1.00  0.00     0.000 C 
HETATM   18  C18 UNL     1       4.215  -0.550  -0.666  1.00  0.00     0.004 C 
HETATM   19  C19 UNL     1       6.668   2.382  -0.992  1.00  0.00     0.000 C 
HETATM   20  C20 UNL     1       6.489   2.475  -2.510  1.00  0.00     0.000 C 
HETATM   21  C21 UNL     1       5.187   3.204  -2.887  1.00  0.00     0.000 C 
HETATM   22  C22 UNL     1       4.014   2.465  -2.215  1.00  0.00     0.000 C 
HETATM   23  C23 UNL     1       5.019   3.145  -4.423  1.00  0.00     0.000 C 
HETATM   24  C24 UNL     1       5.218   4.692  -2.479  1.00  0.00     0.000 C 
HETATM   25  C25 UNL     1       5.714   2.143   1.246  1.00  0.00     0.000 C 
HETATM   26  C26 UNL     1       3.460  -0.354   1.704  1.00  0.00     0.004 C 
HETATM   27  C27 UNL     1      -2.182   0.194   1.068  1.00  0.00     0.004 C 
HETATM   28  C28 UNL     1      -2.096  -2.444   2.489  1.00  0.00     0.002 C 
HETATM   29  C29 UNL     1      -1.058  -4.468   1.460  1.00  0.00     0.002 C 
ENDROOT
BRANCH   2  30
HETATM   30  O1  UNL     1       1.233  -2.647   1.498  1.00  0.00    -0.307 OA
BRANCH  30  31
HETATM   31  C30 UNL     1       1.374  -2.911   2.831  1.00  0.00     0.272 C 
HETATM   32  C31 UNL     1       2.564  -3.826   3.060  1.00  0.00     0.106 C 
HETATM   33  O2  UNL     1       0.648  -2.526   3.718  1.00  0.00    -0.264 OA
ENDBRANCH  30  31
ENDBRANCH   2  30
TORSDOF 2
