REMARK  5 active torsions:
REMARK  status: ('A' for Active; 'I' for Inactive)
REMARK    1  A    between atoms: C7_8  and  C21_27 
REMARK    2  A    between atoms: C9_10  and  C10_11 
REMARK    3  A    between atoms: C10_11  and  C11_12 
REMARK    4  A    between atoms: C12_13  and  O5_24 
REMARK    5  A    between atoms: C15_16  and  C17_19 
ROOT
HETATM    1  C1  UNL     1       2.384  -3.531  -1.103  1.00  0.00     0.066 C 
HETATM    2  C2  UNL     1       3.419  -2.518  -1.572  1.00  0.00     0.182 C 
HETATM    3  C3  UNL     1       2.771  -1.234  -2.087  1.00  0.00     0.127 C 
HETATM    4  O1  UNL     1       2.123  -0.592  -1.030  1.00  0.00    -0.334 OA
HETATM    5  C4  UNL     1       1.294  -1.350  -0.248  1.00  0.00     0.090 C 
HETATM    6  C5  UNL     1       1.304  -2.852  -0.302  1.00  0.00     0.028 C 
HETATM    7  C6  UNL     1       0.375  -3.599   0.350  1.00  0.00     0.133 C 
HETATM    8  C7  UNL     1      -0.678  -2.935   1.135  1.00  0.00     0.071 C 
HETATM    9  C8  UNL     1      -0.870  -1.593   1.166  1.00  0.00     0.133 C 
HETATM   10  C9  UNL     1       0.051  -0.723   0.357  1.00  0.00     0.030 C 
HETATM   11  O6  UNL     1      -1.874  -1.054   1.909  1.00  0.00    -0.190 OA
HETATM   12  O8  UNL     1       0.418  -4.958   0.295  1.00  0.00    -0.190 OA
HETATM   13  C23 UNL     1       3.866  -0.280  -2.591  1.00  0.00     0.033 C 
HETATM   14  C24 UNL     1       1.765  -1.459  -3.225  1.00  0.00     0.033 C 
HETATM   15  O9  UNL     1       4.213  -3.119  -2.567  1.00  0.00    -0.221 OA
ENDROOT
BRANCH  10  16
HETATM   16  C10 UNL     1      -0.445   0.617  -0.138  1.00  0.00     0.061 C 
BRANCH  16  17
HETATM   17  C11 UNL     1       0.358   1.811   0.358  1.00  0.00     0.030 C 
HETATM   18  C12 UNL     1       0.132   2.303   1.659  1.00  0.00     0.090 C 
HETATM   19  C13 UNL     1       0.919   3.369   2.127  1.00  0.00     0.026 C 
HETATM   20  C14 UNL     1       1.803   4.051   1.279  1.00  0.00     0.134 C 
HETATM   21  C19 UNL     1       0.805   3.820   3.570  1.00  0.00     0.035 C 
HETATM   22  C15 UNL     1       1.945   3.596  -0.038  1.00  0.00     0.085 C 
HETATM   23  O4  UNL     1       2.509   5.119   1.747  1.00  0.00    -0.190 OA
HETATM   24  C16 UNL     1       1.241   2.475  -0.506  1.00  0.00     0.134 C 
HETATM   25  O2  UNL     1       1.421   2.022  -1.774  1.00  0.00    -0.190 OA
BRANCH  18  26
HETATM   26  O5  UNL     1      -0.690   1.619   2.517  1.00  0.00    -0.329 OA
HETATM   27  C20 UNL     1      -1.989   2.159   2.625  1.00  0.00     0.181 C 
ENDBRANCH  18  26
BRANCH  22  28
HETATM   28  C17 UNL     1       2.905   4.311  -0.943  1.00  0.00     0.177 C 
HETATM   29  O3  UNL     1       2.985   5.532  -0.925  1.00  0.00    -0.291 OA
HETATM   30  C18 UNL     1       3.876   3.519  -1.798  1.00  0.00     0.077 C 
ENDBRANCH  22  28
ENDBRANCH  16  17
ENDBRANCH  10  16
BRANCH   8  31
HETATM   31  C21 UNL     1      -1.649  -3.808   1.911  1.00  0.00     0.113 C 
HETATM   32  O7  UNL     1      -1.874  -3.577   3.187  1.00  0.00    -0.195 OA
HETATM   33  C22 UNL     1      -2.447  -4.846   1.149  1.00  0.00     0.061 C 
ENDBRANCH   8  31
TORSDOF 5
