REMARK  5 active torsions:
REMARK  status: ('A' for Active; 'I' for Inactive)
REMARK    1  A    between atoms: C1_1  and  O3_19 
REMARK    2  A    between atoms: C4_4  and  C8_10 
REMARK    3  A    between atoms: C5_5  and  O2_8 
REMARK    4  A    between atoms: C8_10  and  C9_11 
REMARK    5  A    between atoms: C10_12  and  C11_13 
ROOT
HETATM    1  C1  UNL     1       6.662   1.536  -0.616  1.00  0.00     0.121 A 
HETATM    2  C2  UNL     1       7.163   0.234  -0.549  1.00  0.00     0.026 A 
HETATM    3  C3  UNL     1       6.347  -0.816  -0.144  1.00  0.00     0.000 A 
HETATM    4  C4  UNL     1       4.996  -0.600   0.140  1.00  0.00     0.007 A 
HETATM    5  C5  UNL     1       4.435   0.685  -0.008  1.00  0.00     0.118 A 
HETATM    6  C6  UNL     1       5.287   1.737  -0.409  1.00  0.00     0.175 A 
HETATM    7  O1  UNL     1       4.835   3.005  -0.611  1.00  0.00    -0.186 OA
ENDROOT
BRANCH   4   8
HETATM    8  C8  UNL     1       4.173  -1.785   0.614  1.00  0.00     0.054 C 
BRANCH   8   9
HETATM    9  C9  UNL     1       2.780  -1.841   0.040  1.00  0.00    -0.021 C 
HETATM   10  C10 UNL     1       1.678  -1.986   0.800  1.00  0.00    -0.004 C 
BRANCH  10  11
HETATM   11  C11 UNL     1       0.297  -1.999   0.287  1.00  0.00    -0.000 A 
HETATM   12  C12 UNL     1      -0.711  -2.600   1.058  1.00  0.00    -0.000 A 
HETATM   13  C13 UNL     1      -2.040  -2.588   0.634  1.00  0.00    -0.000 A 
HETATM   14  C14 UNL     1      -2.388  -1.946  -0.557  1.00  0.00    -0.000 A 
HETATM   15  C15 UNL     1      -1.401  -1.315  -1.315  1.00  0.00    -0.000 A 
HETATM   16  C16 UNL     1      -0.070  -1.336  -0.894  1.00  0.00    -0.000 A 
ENDBRANCH  10  11
ENDBRANCH   8   9
ENDBRANCH   4   8
BRANCH   5  17
HETATM   17  O2  UNL     1       3.099   0.818   0.292  1.00  0.00    -0.326 OA
HETATM   18  C7  UNL     1       2.496   2.081   0.421  1.00  0.00     0.181 C 
ENDBRANCH   5  17
BRANCH   1  19
HETATM   19  O3  UNL     1       7.454   2.560  -1.066  1.00  0.00    -0.326 OA
HETATM   20  C17 UNL     1       8.201   3.180  -0.045  1.00  0.00     0.181 C 
ENDBRANCH   1  19
TORSDOF 5
