REMARK  5 active torsions:
REMARK  status: ('A' for Active; 'I' for Inactive)
REMARK    1  A    between atoms: C7_8  and  C21_27 
REMARK    2  A    between atoms: C9_10  and  C10_11 
REMARK    3  A    between atoms: C10_11  and  C11_12 
REMARK    4  A    between atoms: C12_13  and  O5_24 
REMARK    5  A    between atoms: C15_16  and  C17_19 
ROOT
HETATM    1  C1  UNL     1       5.546   1.406   0.434  1.00  0.00     0.033 C 
HETATM    2  C2  UNL     1       4.531   2.384  -0.081  1.00  0.00     0.033 C 
HETATM    3  C3  UNL     1       3.086   2.176   0.294  1.00  0.00     0.099 C 
HETATM    4  O1  UNL     1       2.665   0.855   0.071  1.00  0.00    -0.336 OA
HETATM    5  C4  UNL     1       3.539  -0.191   0.187  1.00  0.00     0.090 C 
HETATM    6  C5  UNL     1       5.023  -0.001   0.375  1.00  0.00     0.025 C 
HETATM    7  C6  UNL     1       5.918  -1.043   0.389  1.00  0.00     0.133 C 
HETATM    8  C7  UNL     1       5.354  -2.414   0.181  1.00  0.00     0.071 C 
HETATM    9  C8  UNL     1       3.879  -2.672   0.165  1.00  0.00     0.133 C 
HETATM   10  C9  UNL     1       3.012  -1.611   0.135  1.00  0.00     0.030 C 
HETATM   11  O6  UNL     1       3.438  -3.957   0.072  1.00  0.00    -0.190 OA
HETATM   12  O8  UNL     1       7.256  -0.830   0.479  1.00  0.00    -0.190 OA
HETATM   13  C23 UNL     1       2.188   3.082  -0.559  1.00  0.00     0.030 C 
HETATM   14  C24 UNL     1       2.897   2.517   1.777  1.00  0.00     0.030 C 
ENDROOT
BRANCH  10  15
HETATM   15  C10 UNL     1       1.528  -1.923   0.037  1.00  0.00     0.061 C 
BRANCH  15  16
HETATM   16  C11 UNL     1       0.566  -0.786  -0.257  1.00  0.00     0.030 C 
HETATM   17  C12 UNL     1       0.124  -0.528  -1.567  1.00  0.00     0.090 C 
HETATM   18  C13 UNL     1      -0.889   0.430  -1.749  1.00  0.00     0.026 C 
HETATM   19  C14 UNL     1      -1.334   1.241  -0.694  1.00  0.00     0.134 C 
HETATM   20  C19 UNL     1      -1.493   0.618  -3.127  1.00  0.00     0.035 C 
HETATM   21  C15 UNL     1      -0.779   1.046   0.580  1.00  0.00     0.085 C 
HETATM   22  O4  UNL     1      -2.270   2.204  -0.927  1.00  0.00    -0.190 OA
HETATM   23  C16 UNL     1       0.143   0.016   0.812  1.00  0.00     0.134 C 
HETATM   24  O2  UNL     1       0.776  -0.125   2.007  1.00  0.00    -0.190 OA
BRANCH  17  25
HETATM   25  O5  UNL     1       0.517  -1.331  -2.607  1.00  0.00    -0.329 OA
HETATM   26  C20 UNL     1       1.673  -0.866  -3.266  1.00  0.00     0.181 C 
ENDBRANCH  17  25
BRANCH  21  27
HETATM   27  C17 UNL     1      -1.197   1.934   1.711  1.00  0.00     0.177 C 
HETATM   28  O3  UNL     1      -1.454   3.114   1.518  1.00  0.00    -0.291 OA
HETATM   29  C18 UNL     1      -1.377   1.355   3.103  1.00  0.00     0.077 C 
ENDBRANCH  21  27
ENDBRANCH  15  16
ENDBRANCH  10  15
BRANCH   8  30
HETATM   30  C21 UNL     1       6.294  -3.606   0.047  1.00  0.00     0.113 C 
HETATM   31  O7  UNL     1       6.074  -4.500  -0.891  1.00  0.00    -0.195 OA
HETATM   32  C22 UNL     1       7.385  -3.790   1.080  1.00  0.00     0.061 C 
ENDBRANCH   8  30
TORSDOF 5
