REMARK  1 active torsions:
REMARK  status: ('A' for Active; 'I' for Inactive)
REMARK    1  A    between atoms: C6_6  and  O1_7 
ROOT
HETATM    1  C1  UNL     1      -0.125   0.962  -0.133  1.00  0.00     0.153 C 
HETATM    2  C2  UNL     1       1.117   0.340   0.008  1.00  0.00     0.027 C 
HETATM    3  C3  UNL     1       2.278   1.039   0.359  1.00  0.00     0.009 C 
HETATM    4  C4  UNL     1       2.179   2.427   0.508  1.00  0.00    -0.020 C 
HETATM    5  C5  UNL     1       0.931   3.045   0.385  1.00  0.00     0.022 C 
HETATM    6  C6  UNL     1      -0.246   2.330   0.143  1.00  0.00     0.119 C 
HETATM    7  C8  UNL     1       3.408   3.251   0.784  1.00  0.00     0.061 C 
HETATM    8  C9  UNL     1       4.693   2.483   0.455  1.00  0.00     0.256 C 
HETATM    9  N1  UNL     1       4.649   1.167   1.069  1.00  0.00     0.143 N 
HETATM   10  C10 UNL     1       3.622   0.323   0.453  1.00  0.00     0.233 A 
HETATM   11  C11 UNL     1       3.971  -0.218  -0.970  1.00  0.00     0.068 A 
HETATM   12  C12 UNL     1       3.937  -1.711  -0.800  1.00  0.00     0.004 A 
HETATM   13  C13 UNL     1       3.625  -2.144   0.493  1.00  0.00    -0.004 A 
HETATM   14  C14 UNL     1       3.415  -0.937   1.288  1.00  0.00     0.010 A 
HETATM   15  C15 UNL     1       3.075  -0.918   2.590  1.00  0.00    -0.002 C 
HETATM   16  C16 UNL     1       3.539  -3.500   0.836  1.00  0.00     0.002 A 
HETATM   17  C17 UNL     1       3.760  -4.472  -0.149  1.00  0.00     0.026 A 
HETATM   18  C18 UNL     1       4.057  -4.036  -1.441  1.00  0.00     0.119 A 
HETATM   19  C19 UNL     1       4.147  -2.684  -1.767  1.00  0.00     0.115 A 
HETATM   20  O2  UNL     1       4.444  -2.552  -3.108  1.00  0.00    -0.300 OA
HETATM   21  C20 UNL     1       4.537  -3.871  -3.659  1.00  0.00     0.304 A 
HETATM   22  O3  UNL     1       4.301  -4.783  -2.578  1.00  0.00    -0.300 OA
HETATM   23  C21 UNL     1       5.974   0.561   1.104  1.00  0.00     0.286 C 
HETATM   24  O4  UNL     1      -1.226   0.263  -0.517  1.00  0.00    -0.188 OA
ENDROOT
BRANCH   6  25
HETATM   25  O1  UNL     1      -1.443   2.966  -0.056  1.00  0.00    -0.326 OA
HETATM   26  C7  UNL     1      -2.259   2.997   1.093  1.00  0.00     0.181 C 
ENDBRANCH   6  25
TORSDOF 1
