REMARK  4 active torsions:
REMARK  status: ('A' for Active; 'I' for Inactive)
REMARK    1  A    between atoms: C4_4  and  C19_24 
REMARK    2  A    between atoms: C9_11  and  C10_12 
REMARK    3  A    between atoms: C12_14  and  O5_21 
REMARK    4  A    between atoms: C19_24  and  C20_25 
ROOT
HETATM    1  C1  UNL     1      -2.298   0.367   2.196  1.00  0.00     0.102 C 
HETATM    2  C2  UNL     1      -2.409  -0.965   2.050  1.00  0.00     0.060 C 
HETATM    3  C3  UNL     1      -1.191  -1.717   1.666  1.00  0.00     0.175 C 
HETATM    4  C4  UNL     1       0.116  -0.901   1.486  1.00  0.00     0.066 C 
HETATM    5  C5  UNL     1       0.115   0.232   2.535  1.00  0.00     0.042 C 
HETATM    6  C6  UNL     1      -1.012   1.101   1.992  1.00  0.00     0.135 C 
HETATM    7  O1  UNL     1      -1.203   2.302   2.681  1.00  0.00    -0.326 OA
HETATM    8  C7  UNL     1      -2.609   2.521   2.699  1.00  0.00     0.299 C 
HETATM    9  O2  UNL     1      -3.264   1.259   2.593  1.00  0.00    -0.304 OA
HETATM   10  C8  UNL     1      -0.687   1.247   0.498  1.00  0.00     0.035 C 
HETATM   11  C9  UNL     1      -0.045  -0.126   0.144  1.00  0.00     0.032 C 
HETATM   12  C18 UNL     1       0.141   2.503   0.184  1.00  0.00     0.003 C 
HETATM   13  O6  UNL     1      -1.251  -2.925   1.466  1.00  0.00    -0.291 OA
ENDROOT
BRANCH  11  14
HETATM   14  C10 UNL     1       1.152  -0.111  -0.791  1.00  0.00    -0.018 A 
HETATM   15  C11 UNL     1       1.057  -0.712  -2.062  1.00  0.00     0.022 A 
HETATM   16  C12 UNL     1       2.110  -0.796  -2.991  1.00  0.00     0.118 A 
HETATM   17  C13 UNL     1       3.291  -0.182  -2.567  1.00  0.00     0.141 A 
HETATM   18  C14 UNL     1       3.419   0.437  -1.330  1.00  0.00     0.121 A 
HETATM   19  O4  UNL     1       4.495  -0.082  -3.240  1.00  0.00    -0.298 OA
HETATM   20  C15 UNL     1       2.365   0.485  -0.424  1.00  0.00     0.022 A 
HETATM   21  O3  UNL     1       4.700   0.936  -1.197  1.00  0.00    -0.299 OA
HETATM   22  C16 UNL     1       5.418   0.613  -2.393  1.00  0.00     0.304 A 
BRANCH  16  23
HETATM   23  O5  UNL     1       2.044  -1.350  -4.243  1.00  0.00    -0.326 OA
HETATM   24  C17 UNL     1       0.779  -1.715  -4.744  1.00  0.00     0.181 C 
ENDBRANCH  16  23
ENDBRANCH  11  14
BRANCH   4  25
HETATM   25  C19 UNL     1       1.290  -1.896   1.611  1.00  0.00     0.034 C 
BRANCH  25  26
HETATM   26  C20 UNL     1       2.661  -1.345   1.913  1.00  0.00    -0.026 C 
HETATM   27  C21 UNL     1       3.764  -1.663   1.218  1.00  0.00    -0.005 C 
ENDBRANCH  25  26
ENDBRANCH   4  25
TORSDOF 4
