REMARK  0 active torsions:
REMARK  status: ('A' for Active; 'I' for Inactive)
ROOT
HETATM    1  C1  UNL     1       8.408   0.268  -0.569  1.00  0.00     0.027 A 
HETATM    2  C2  UNL     1       7.275   1.010  -0.227  1.00  0.00     0.002 A 
HETATM    3  C3  UNL     1       6.081   0.367   0.097  1.00  0.00    -0.004 A 
HETATM    4  C4  UNL     1       6.012  -1.035   0.069  1.00  0.00    -0.020 A 
HETATM    5  C5  UNL     1       7.160  -1.755  -0.276  1.00  0.00     0.023 A 
HETATM    6  C6  UNL     1       8.371  -1.128  -0.593  1.00  0.00     0.131 A 
HETATM    7  O1  UNL     1       9.477  -1.846  -0.923  1.00  0.00    -0.190 OA
HETATM    8  C7  UNL     1       4.726  -1.772   0.373  1.00  0.00     0.031 C 
HETATM    9  C8  UNL     1       4.032  -2.234  -0.920  1.00  0.00     0.031 C 
HETATM   10  C9  UNL     1       2.552  -2.406  -0.675  1.00  0.00    -0.022 A 
HETATM   11  C10 UNL     1       1.732  -1.274  -0.668  1.00  0.00    -0.002 A 
HETATM   12  C11 UNL     1       0.371  -1.341  -0.362  1.00  0.00     0.027 A 
HETATM   13  C12 UNL     1      -0.219  -2.584  -0.091  1.00  0.00     0.131 A 
HETATM   14  C13 UNL     1       0.595  -3.720  -0.127  1.00  0.00     0.027 A 
HETATM   15  C14 UNL     1       1.962  -3.642  -0.410  1.00  0.00    -0.002 A 
HETATM   16  O2  UNL     1      -1.531  -2.695   0.240  1.00  0.00    -0.190 OA
HETATM   17  C15 UNL     1      -0.372  -0.051  -0.297  1.00  0.00     0.027 A 
HETATM   18  C16 UNL     1       0.180   0.978   0.477  1.00  0.00     0.002 A 
HETATM   19  C17 UNL     1      -0.385   2.256   0.521  1.00  0.00     0.000 A 
HETATM   20  C18 UNL     1      -1.598   2.450  -0.154  1.00  0.00     0.002 A 
HETATM   21  C19 UNL     1      -2.164   1.421  -0.906  1.00  0.00     0.027 A 
HETATM   22  C20 UNL     1      -1.556   0.165  -1.015  1.00  0.00     0.131 A 
HETATM   23  O3  UNL     1      -2.113  -0.813  -1.776  1.00  0.00    -0.190 OA
HETATM   24  C21 UNL     1       0.183   3.348   1.332  1.00  0.00     0.000 C 
HETATM   25  C22 UNL     1       1.477   3.515   1.679  1.00  0.00     0.002 C 
HETATM   26  C23 UNL     1       2.644   2.717   1.224  1.00  0.00     0.025 A 
HETATM   27  C24 UNL     1       2.910   2.499  -0.137  1.00  0.00     0.131 A 
HETATM   28  C25 UNL     1       4.035   1.738  -0.480  1.00  0.00     0.027 A 
HETATM   29  C26 UNL     1       4.893   1.213   0.487  1.00  0.00     0.002 A 
HETATM   30  C27 UNL     1       4.639   1.472   1.836  1.00  0.00     0.000 A 
HETATM   31  C28 UNL     1       3.527   2.231   2.197  1.00  0.00     0.002 A 
HETATM   32  O4  UNL     1       2.077   2.972  -1.101  1.00  0.00    -0.190 OA
ENDROOT
TORSDOF 0
