REMARK  4 active torsions:
REMARK  status: ('A' for Active; 'I' for Inactive)
REMARK    1  A    between atoms: C2_2  and  C16_21 
REMARK    2  A    between atoms: C7_8  and  C15_19 
REMARK    3  A    between atoms: C8_9  and  C9_11 
REMARK    4  A    between atoms: C20_26  and  C22_29 
ROOT
HETATM    1  C1  UNL     1       7.990   1.328   2.491  1.00  0.00     0.000 A 
HETATM    2  C2  UNL     1       7.044   1.150   1.478  1.00  0.00     0.007 A 
HETATM    3  C3  UNL     1       7.500   0.689   0.240  1.00  0.00     0.024 A 
HETATM    4  C4  UNL     1       8.842   0.370  -0.004  1.00  0.00     0.116 A 
HETATM    5  C5  UNL     1       9.789   0.604   1.006  1.00  0.00     0.116 A 
HETATM    6  C6  UNL     1       9.336   1.054   2.251  1.00  0.00     0.026 A 
HETATM    7  O1  UNL     1      11.108   0.292   0.823  1.00  0.00    -0.326 OA
HETATM    8  C7  UNL     1      11.342  -0.588  -0.240  1.00  0.00     0.186 C 
HETATM    9  C8  UNL     1      10.605  -0.071  -1.474  1.00  0.00     0.174 C 
HETATM   10  O2  UNL     1       9.217  -0.090  -1.236  1.00  0.00    -0.324 OA
ENDROOT
BRANCH   2  11
HETATM   11  C16 UNL     1       5.574   1.425   1.717  1.00  0.00     0.140 C 
HETATM   12  C17 UNL     1       4.695   0.188   1.517  1.00  0.00     0.066 C 
HETATM   13  C18 UNL     1       3.414   0.797   0.958  1.00  0.00     0.066 C 
HETATM   14  C21 UNL     1       4.183  -0.477   2.782  1.00  0.00     0.145 C 
HETATM   15  C19 UNL     1       3.964   1.979   0.179  1.00  0.00     0.145 C 
HETATM   16  C20 UNL     1       2.641   1.134   2.234  1.00  0.00     0.140 C 
HETATM   17  O6  UNL     1       5.089   2.451   0.875  1.00  0.00    -0.352 OA
HETATM   18  O7  UNL     1       3.140   0.323   3.279  1.00  0.00    -0.352 OA
BRANCH  16  19
HETATM   19  C22 UNL     1       1.143   0.984   2.074  1.00  0.00     0.007 A 
HETATM   20  C23 UNL     1       0.288   2.087   2.172  1.00  0.00     0.028 A 
HETATM   21  C24 UNL     1      -1.098   1.967   2.026  1.00  0.00     0.156 A 
HETATM   22  C25 UNL     1      -1.654   0.710   1.768  1.00  0.00     0.156 A 
HETATM   23  O9  UNL     1      -1.921   3.044   2.126  1.00  0.00    -0.188 OA
HETATM   24  C26 UNL     1      -0.808  -0.398   1.671  1.00  0.00     0.029 A 
HETATM   25  O8  UNL     1      -2.998   0.581   1.619  1.00  0.00    -0.188 OA
HETATM   26  C27 UNL     1       0.572  -0.267   1.825  1.00  0.00     0.000 A 
ENDBRANCH  16  19
ENDBRANCH   2  11
BRANCH   9  27
HETATM   27  C9  UNL     1      10.899  -0.867  -2.731  1.00  0.00     0.010 A 
HETATM   28  C10 UNL     1      11.508  -0.274  -3.841  1.00  0.00     0.000 A 
HETATM   29  C11 UNL     1      11.782  -1.026  -4.984  1.00  0.00     0.029 A 
HETATM   30  C12 UNL     1      11.460  -2.383  -5.050  1.00  0.00     0.156 A 
HETATM   31  C13 UNL     1      10.848  -2.989  -3.947  1.00  0.00     0.156 A 
HETATM   32  O4  UNL     1      11.725  -3.131  -6.153  1.00  0.00    -0.188 OA
HETATM   33  C14 UNL     1      10.575  -2.225  -2.809  1.00  0.00     0.028 A 
HETATM   34  O3  UNL     1      10.537  -4.310  -3.990  1.00  0.00    -0.188 OA
ENDBRANCH   9  27
BRANCH   8  35
HETATM   35  C15 UNL     1      12.848  -0.706  -0.429  1.00  0.00     0.215 C 
HETATM   36  O5  UNL     1      13.155  -1.850  -1.201  1.00  0.00    -0.218 OA
ENDBRANCH   8  35
TORSDOF 4
