REMARK  1 active torsions:
REMARK  status: ('A' for Active; 'I' for Inactive)
REMARK    1  A    between atoms: C3_3  and  C8_8 
ROOT
HETATM    1  C1  UNL     1       0.608   0.850  -0.498  1.00  0.00     0.029 C 
HETATM    2  C2  UNL     1       0.192  -0.509  -0.074  1.00  0.00     0.176 C 
HETATM    3  C3  UNL     1      -1.219  -0.669   0.474  1.00  0.00     0.081 C 
HETATM    4  C4  UNL     1      -2.176   0.372  -0.120  1.00  0.00     0.016 C 
HETATM    5  C5  UNL     1      -1.635   1.794   0.065  1.00  0.00     0.023 C 
HETATM    6  C6  UNL     1      -0.215   1.915  -0.431  1.00  0.00    -0.041 C 
HETATM    7  C7  UNL     1       0.249   3.304  -0.795  1.00  0.00     0.026 C 
HETATM    8  O1  UNL     1       0.975  -1.449  -0.125  1.00  0.00    -0.291 OA
ENDROOT
BRANCH   3   9
HETATM    9  C8  UNL     1      -1.757  -2.074   0.294  1.00  0.00    -0.037 C 
HETATM   10  C9  UNL     1      -2.229  -2.784   1.539  1.00  0.00     0.027 C 
HETATM   11  C10 UNL     1      -1.826  -2.650  -0.916  1.00  0.00    -0.009 C 
ENDBRANCH   3   9
TORSDOF 1
