REMARK  0 active torsions:
REMARK  status: ('A' for Active; 'I' for Inactive)
ROOT
HETATM    1  C1  UNL     1      -1.078   0.589   0.292  1.00  0.00     0.000 C 
HETATM    2  C2  UNL     1      -1.039  -0.958   0.189  1.00  0.00     0.000 C 
HETATM    3  C3  UNL     1       0.163  -1.734   0.750  1.00  0.00     0.004 C 
HETATM    4  C4  UNL     1       1.534  -1.048   0.804  1.00  0.00     0.018 C 
HETATM    5  C5  UNL     1       1.969  -0.359  -0.492  1.00  0.00     0.004 C 
HETATM    6  C6  UNL     1       1.283   0.994  -0.733  1.00  0.00     0.001 C 
HETATM    7  C7  UNL     1       0.252   1.396   0.339  1.00  0.00     0.004 C 
HETATM    8  C8  UNL     1      -0.044   2.912   0.171  1.00  0.00     0.000 C 
HETATM    9  C9  UNL     1       0.924   1.258   1.727  1.00  0.00     0.022 C 
HETATM   10  C10 UNL     1       1.583  -0.074   1.952  1.00  0.00    -0.044 C 
HETATM   11  C11 UNL     1       2.179  -0.367   3.119  1.00  0.00    -0.009 C 
HETATM   12  C12 UNL     1      -1.595  -1.365  -1.207  1.00  0.00     0.000 C 
HETATM   13  C13 UNL     1      -1.832  -0.047  -1.956  1.00  0.00     0.000 C 
HETATM   14  C14 UNL     1      -2.074   0.961  -0.831  1.00  0.00     0.000 C 
HETATM   15  C15 UNL     1      -0.829  -2.373  -2.072  1.00  0.00     0.000 C 
ENDROOT
TORSDOF 0
