REMARK  1 active torsions:
REMARK  status: ('A' for Active; 'I' for Inactive)
REMARK    1  A    between atoms: C11_13  and  C13_16 
ROOT
HETATM    1  C1  UNL     1      -1.582  -2.537   0.308  1.00  0.00     0.117 C 
HETATM    2  C2  UNL     1      -1.683  -1.031   0.384  1.00  0.00     0.001 C 
HETATM    3  C3  UNL     1      -0.578  -0.267   0.410  1.00  0.00     0.002 C 
HETATM    4  C4  UNL     1       0.723  -0.930   0.266  1.00  0.00     0.048 A 
HETATM    5  C5  UNL     1       0.701  -2.248  -0.212  1.00  0.00     0.098 A 
HETATM    6  O1  UNL     1      -0.461  -2.938  -0.437  1.00  0.00    -0.331 OA
HETATM    7  C6  UNL     1       1.937  -2.885  -0.367  1.00  0.00     0.049 A 
HETATM    8  C7  UNL     1       3.161  -2.257  -0.120  1.00  0.00     0.107 A 
HETATM    9  C8  UNL     1       3.129  -0.934   0.352  1.00  0.00     0.087 A 
HETATM   10  C9  UNL     1       1.920  -0.238   0.531  1.00  0.00     0.138 A 
HETATM   11  O2  UNL     1       1.868   1.056   0.950  1.00  0.00    -0.190 OA
HETATM   12  C10 UNL     1       4.443  -0.294   0.625  1.00  0.00     0.201 C 
HETATM   13  C11 UNL     1       5.631  -0.980   0.043  1.00  0.00     0.064 C 
HETATM   14  C12 UNL     1       5.473  -2.245  -0.405  1.00  0.00     0.126 C 
HETATM   15  O3  UNL     1       4.320  -2.959  -0.275  1.00  0.00    -0.305 OA
HETATM   16  O5  UNL     1       4.549   0.717   1.310  1.00  0.00    -0.286 OA
HETATM   17  C24 UNL     1      -2.822  -3.123  -0.376  1.00  0.00     0.035 C 
HETATM   18  C25 UNL     1      -1.463  -3.099   1.731  1.00  0.00     0.035 C 
ENDROOT
BRANCH  13  19
HETATM   19  C13 UNL     1       6.920  -0.252  -0.069  1.00  0.00     0.005 A 
HETATM   20  C14 UNL     1       8.149  -0.928  -0.014  1.00  0.00     0.002 A 
HETATM   21  C15 UNL     1       9.359  -0.233  -0.028  1.00  0.00     0.024 A 
HETATM   22  C16 UNL     1       9.419   1.165  -0.082  1.00  0.00     0.094 A 
HETATM   23  C17 UNL     1       8.193   1.831  -0.229  1.00  0.00     0.022 A 
HETATM   24  O4  UNL     1      10.630   1.804  -0.054  1.00  0.00    -0.332 OA
HETATM   25  C18 UNL     1       6.973   1.140  -0.220  1.00  0.00     0.002 A 
HETATM   26  C19 UNL     1       8.222   3.291  -0.294  1.00  0.00    -0.000 C 
HETATM   27  C20 UNL     1       9.416   3.897  -0.396  1.00  0.00     0.001 C 
HETATM   28  C21 UNL     1      10.708   3.122  -0.536  1.00  0.00     0.117 C 
HETATM   29  C22 UNL     1      11.812   3.827   0.264  1.00  0.00     0.035 C 
HETATM   30  C23 UNL     1      11.093   3.081  -2.020  1.00  0.00     0.035 C 
ENDBRANCH  13  19
TORSDOF 1
