REMARK  4 active torsions:
REMARK  status: ('A' for Active; 'I' for Inactive)
REMARK    1  A    between atoms: C9_10  and  C11_13 
REMARK    2  A    between atoms: C11_13  and  C12_14 
REMARK    3  A    between atoms: C18_21  and  C19_22 
REMARK    4  A    between atoms: C19_22  and  C20_23 
ROOT
HETATM    1  C1  UNL     1      -1.263   2.436   1.101  1.00  0.00     0.090 C 
HETATM    2  C2  UNL     1       0.093   2.723   0.475  1.00  0.00     0.179 C 
HETATM    3  C3  UNL     1       0.997   1.550   0.335  1.00  0.00     0.082 A 
HETATM    4  C4  UNL     1       0.527   0.292   0.758  1.00  0.00     0.097 A 
HETATM    5  O1  UNL     1      -0.760   0.105   1.183  1.00  0.00    -0.333 OA
HETATM    6  C5  UNL     1      -1.713   1.022   0.740  1.00  0.00     0.129 C 
HETATM    7  C6  UNL     1      -2.011   0.797  -0.744  1.00  0.00     0.033 C 
HETATM    8  C7  UNL     1       1.378  -0.819   0.627  1.00  0.00     0.023 A 
HETATM    9  C8  UNL     1       2.665  -0.678   0.073  1.00  0.00     0.099 A 
HETATM   10  C9  UNL     1       3.124   0.601  -0.276  1.00  0.00     0.030 A 
HETATM   11  C10 UNL     1       2.296   1.726  -0.166  1.00  0.00     0.134 A 
HETATM   12  O2  UNL     1       2.742   2.932  -0.611  1.00  0.00    -0.190 OA
HETATM   13  O3  UNL     1       3.491  -1.748  -0.147  1.00  0.00    -0.277 OA
HETATM   14  C16 UNL     1       2.889  -2.959  -0.237  1.00  0.00     0.277 C 
HETATM   15  C17 UNL     1       2.059  -3.209   0.999  1.00  0.00     0.101 C 
HETATM   16  C18 UNL     1       0.894  -2.207   1.036  1.00  0.00     0.036 C 
HETATM   17  O4  UNL     1       3.017  -3.728  -1.164  1.00  0.00    -0.264 OA
HETATM   18  O5  UNL     1       0.387   3.865   0.144  1.00  0.00    -0.291 OA
HETATM   19  C22 UNL     1      -2.321   3.499   0.763  1.00  0.00     0.011 C 
ENDROOT
BRANCH  10  20
HETATM   20  C11 UNL     1       4.530   0.758  -0.825  1.00  0.00     0.056 C 
BRANCH  20  21
HETATM   21  C12 UNL     1       4.540   0.600  -2.323  1.00  0.00    -0.030 C 
HETATM   22  C13 UNL     1       5.613   0.767  -3.116  1.00  0.00    -0.048 C 
HETATM   23  C14 UNL     1       5.535   0.526  -4.605  1.00  0.00     0.026 C 
HETATM   24  C15 UNL     1       6.976   1.177  -2.614  1.00  0.00     0.026 C 
ENDBRANCH  20  21
ENDBRANCH  10  20
BRANCH  16  25
HETATM   25  C19 UNL     1       0.201  -2.297   2.417  1.00  0.00     0.005 C 
BRANCH  25  26
HETATM   26  C20 UNL     1      -1.234  -2.844   2.331  1.00  0.00     0.000 C 
HETATM   27  C21 UNL     1      -1.920  -2.871   3.703  1.00  0.00     0.000 C 
ENDBRANCH  25  26
ENDBRANCH  16  25
TORSDOF 4
