REMARK  4 active torsions:
REMARK  status: ('A' for Active; 'I' for Inactive)
REMARK    1  A    between atoms: C2_2  and  O6_21 
REMARK    2  A    between atoms: C9_10  and  C10_12 
REMARK    3  A    between atoms: O6_21  and  C16_22 
REMARK    4  A    between atoms: C17_24  and  C21_31 
ROOT
HETATM    1  C1  UNL     1       2.378   3.189   0.093  1.00  0.00     0.054 A 
HETATM    2  C2  UNL     1       1.940   1.862  -0.026  1.00  0.00     0.126 A 
HETATM    3  C3  UNL     1       2.946   0.873  -0.017  1.00  0.00     0.176 A 
HETATM    4  C4  UNL     1       4.306   1.221   0.072  1.00  0.00     0.132 A 
HETATM    5  C5  UNL     1       4.676   2.569   0.165  1.00  0.00     0.089 A 
HETATM    6  C6  UNL     1       3.712   3.585   0.178  1.00  0.00     0.138 A 
HETATM    7  O1  UNL     1       4.018   4.907   0.261  1.00  0.00    -0.190 OA
HETATM    8  C7  UNL     1       6.122   2.890   0.247  1.00  0.00     0.202 A 
HETATM    9  C8  UNL     1       7.029   1.721   0.214  1.00  0.00     0.067 A 
HETATM   10  C9  UNL     1       6.553   0.455   0.127  1.00  0.00     0.103 A 
HETATM   11  O2  UNL     1       5.213   0.200   0.070  1.00  0.00    -0.305 OA
HETATM   12  O4  UNL     1       6.577   4.028   0.336  1.00  0.00    -0.286 OA
HETATM   13  O5  UNL     1       2.682  -0.456  -0.144  1.00  0.00    -0.186 OA
ENDROOT
BRANCH   2  14
HETATM   14  O6  UNL     1       0.575   1.704  -0.091  1.00  0.00    -0.301 OA
BRANCH  14  15
HETATM   15  C16 UNL     1      -0.093   0.473   0.063  1.00  0.00     0.274 C 
HETATM   16  O7  UNL     1      -0.806   0.294  -1.143  1.00  0.00    -0.326 OA
HETATM   17  C17 UNL     1      -1.550  -0.898  -1.159  1.00  0.00     0.184 C 
HETATM   18  C18 UNL     1      -2.553  -0.904  -0.009  1.00  0.00     0.215 C 
HETATM   19  C19 UNL     1      -1.846  -0.699   1.315  1.00  0.00     0.220 C 
HETATM   20  O10 UNL     1      -3.236  -2.132   0.058  1.00  0.00    -0.218 OA
HETATM   21  C20 UNL     1      -1.048   0.582   1.227  1.00  0.00     0.241 C 
HETATM   22  O9  UNL     1      -2.793  -0.606   2.346  1.00  0.00    -0.218 OA
HETATM   23  O8  UNL     1      -0.304   0.757   2.406  1.00  0.00    -0.215 OA
BRANCH  17  24
HETATM   24  C21 UNL     1      -2.248  -1.008  -2.506  1.00  0.00     0.214 C 
HETATM   25  O11 UNL     1      -1.290  -1.134  -3.538  1.00  0.00    -0.218 OA
ENDBRANCH  17  24
ENDBRANCH  14  15
ENDBRANCH   2  14
BRANCH  10  26
HETATM   26  C10 UNL     1       7.474  -0.705   0.107  1.00  0.00     0.023 A 
HETATM   27  C11 UNL     1       8.876  -0.627   0.113  1.00  0.00     0.004 A 
HETATM   28  C12 UNL     1       9.670  -1.777   0.098  1.00  0.00     0.028 A 
HETATM   29  C13 UNL     1       9.111  -3.056   0.077  1.00  0.00     0.131 A 
HETATM   30  C14 UNL     1       7.715  -3.142   0.068  1.00  0.00     0.028 A 
HETATM   31  O3  UNL     1       9.880  -4.177   0.063  1.00  0.00    -0.190 OA
HETATM   32  C15 UNL     1       6.918  -1.999   0.082  1.00  0.00     0.004 A 
ENDBRANCH  10  26
TORSDOF 4
