REMARK  3 active torsions:
REMARK  status: ('A' for Active; 'I' for Inactive)
REMARK    1  A    between atoms: C2_2  and  O4_20 
REMARK    2  A    between atoms: C8_8  and  C10_11 
REMARK    3  A    between atoms: C13_14  and  O3_18 
ROOT
HETATM    1  C1  UNL     1       0.227   1.885   0.022  1.00  0.00     0.024 A 
HETATM    2  C2  UNL     1      -0.352   0.627  -0.187  1.00  0.00     0.096 A 
HETATM    3  C3  UNL     1       0.544  -0.443  -0.326  1.00  0.00     0.049 A 
HETATM    4  C4  UNL     1       1.941  -0.311  -0.294  1.00  0.00     0.098 A 
HETATM    5  C5  UNL     1       2.468   0.971  -0.105  1.00  0.00     0.005 A 
HETATM    6  C6  UNL     1       1.609   2.060   0.057  1.00  0.00     0.000 A 
HETATM    7  C7  UNL     1       3.954   1.187  -0.097  1.00  0.00     0.057 A 
HETATM    8  C8  UNL     1       4.720  -0.106  -0.177  1.00  0.00     0.009 A 
HETATM    9  C9  UNL     1       4.079  -1.276  -0.358  1.00  0.00     0.119 A 
HETATM   10  O1  UNL     1       2.728  -1.414  -0.459  1.00  0.00    -0.306 OA
ENDROOT
BRANCH   8  11
HETATM   11  C10 UNL     1       6.208  -0.077  -0.102  1.00  0.00     0.024 A 
HETATM   12  C11 UNL     1       6.909   0.847  -0.884  1.00  0.00     0.004 A 
HETATM   13  C12 UNL     1       8.301   0.896  -0.857  1.00  0.00     0.024 A 
HETATM   14  C13 UNL     1       9.059   0.041  -0.047  1.00  0.00     0.096 A 
HETATM   15  C14 UNL     1       8.328  -0.870   0.730  1.00  0.00     0.052 A 
HETATM   16  C15 UNL     1       6.930  -0.951   0.723  1.00  0.00     0.133 A 
HETATM   17  O2  UNL     1       6.294  -1.836   1.538  1.00  0.00    -0.190 OA
BRANCH  14  18
HETATM   18  O3  UNL     1      10.427   0.142  -0.089  1.00  0.00    -0.328 OA
HETATM   19  C16 UNL     1      11.193  -0.790   0.637  1.00  0.00     0.181 C 
ENDBRANCH  14  18
ENDBRANCH   8  11
BRANCH   2  20
HETATM   20  O4  UNL     1      -1.722   0.531  -0.204  1.00  0.00    -0.328 OA
HETATM   21  C17 UNL     1      -2.305  -0.750  -0.257  1.00  0.00     0.181 C 
ENDBRANCH   2  20
TORSDOF 3
