REMARK  2 active torsions:
REMARK  status: ('A' for Active; 'I' for Inactive)
REMARK    1  A    between atoms: C1_1  and  O6_17 
REMARK    2  A    between atoms: C6_6  and  O1_7 
ROOT
HETATM    1  C1  UNL     1      -1.082  -0.608   0.138  1.00  0.00     0.141 A 
HETATM    2  C2  UNL     1      -1.501   0.726   0.087  1.00  0.00     0.145 A 
HETATM    3  C3  UNL     1      -0.632   1.806   0.145  1.00  0.00     0.144 A 
HETATM    4  C4  UNL     1       0.742   1.649   0.300  1.00  0.00     0.130 A 
HETATM    5  C5  UNL     1       1.163   0.308   0.427  1.00  0.00     0.049 A 
HETATM    6  C6  UNL     1       0.295  -0.819   0.391  1.00  0.00     0.120 A 
HETATM    7  C8  UNL     1       2.602   0.104   0.632  1.00  0.00     0.010 A 
HETATM    8  C9  UNL     1       3.441   1.161   0.670  1.00  0.00     0.069 A 
HETATM    9  C10 UNL     1       2.889   2.522   0.509  1.00  0.00     0.300 A 
HETATM   10  O2  UNL     1       1.557   2.745   0.340  1.00  0.00    -0.271 OA
HETATM   11  O3  UNL     1       3.675   3.468   0.532  1.00  0.00    -0.259 OA
HETATM   12  O4  UNL     1      -1.347   2.981   0.030  1.00  0.00    -0.297 OA
HETATM   13  C11 UNL     1      -2.730   2.640  -0.100  1.00  0.00     0.304 A 
HETATM   14  O5  UNL     1      -2.788   1.210  -0.064  1.00  0.00    -0.297 OA
ENDROOT
BRANCH   1  15
HETATM   15  O6  UNL     1      -2.023  -1.603   0.133  1.00  0.00    -0.324 OA
HETATM   16  C12 UNL     1      -2.658  -1.814  -1.108  1.00  0.00     0.182 C 
ENDBRANCH   1  15
BRANCH   6  17
HETATM   17  O1  UNL     1       0.901  -2.049   0.532  1.00  0.00    -0.326 OA
HETATM   18  C7  UNL     1       0.256  -3.244   0.168  1.00  0.00     0.181 C 
ENDBRANCH   6  17
TORSDOF 2
