REMARK  1 active torsions:
REMARK  status: ('A' for Active; 'I' for Inactive)
REMARK    1  A    between atoms: C2_2  and  O5_19 
ROOT
HETATM    1  C1  UNL     1       5.685   0.533   0.406  1.00  0.00     0.052 A 
HETATM    2  C2  UNL     1       5.541  -0.868   0.204  1.00  0.00     0.096 A 
HETATM    3  C3  UNL     1       4.244  -1.312   0.070  1.00  0.00     0.024 A 
HETATM    4  C4  UNL     1       3.129  -0.423   0.132  1.00  0.00     0.006 A 
HETATM    5  C5  UNL     1       3.296   0.961   0.341  1.00  0.00     0.051 A 
HETATM    6  C6  UNL     1       4.647   1.436   0.475  1.00  0.00     0.135 A 
HETATM    7  O1  UNL     1       4.977   2.737   0.673  1.00  0.00    -0.190 OA
HETATM    8  C7  UNL     1       2.128   1.802   0.411  1.00  0.00     0.138 A 
HETATM    9  C8  UNL     1       0.873   1.220   0.267  1.00  0.00     0.085 A 
HETATM   10  C9  UNL     1       0.710  -0.177   0.030  1.00  0.00    -0.009 A 
HETATM   11  C10 UNL     1       1.823  -0.976  -0.025  1.00  0.00    -0.003 A 
HETATM   12  C11 UNL     1      -0.659  -0.780  -0.145  1.00  0.00     0.078 C 
HETATM   13  C12 UNL     1      -1.654   0.296  -0.501  1.00  0.00     0.085 C 
HETATM   14  O2  UNL     1      -1.619   1.436   0.244  1.00  0.00    -0.277 OA
HETATM   15  C13 UNL     1      -0.387   2.017   0.349  1.00  0.00     0.301 C 
HETATM   16  O3  UNL     1      -0.347   3.231   0.537  1.00  0.00    -0.259 OA
HETATM   17  C14 UNL     1      -2.584   0.088  -1.447  1.00  0.00     0.022 C 
HETATM   18  O4  UNL     1       2.216   3.143   0.626  1.00  0.00    -0.190 OA
ENDROOT
BRANCH   2  19
HETATM   19  O5  UNL     1       6.669  -1.649   0.160  1.00  0.00    -0.328 OA
HETATM   20  C15 UNL     1       6.519  -3.037  -0.023  1.00  0.00     0.181 C 
ENDBRANCH   2  19
TORSDOF 1
