REMARK  2 active torsions:
REMARK  status: ('A' for Active; 'I' for Inactive)
REMARK    1  A    between atoms: C9_10  and  C10_12 
REMARK    2  A    between atoms: C19_23  and  C21_25 
ROOT
HETATM    1  C10 UNL     1       0.842  -1.342   0.606  1.00  0.00     0.010 A 
HETATM    2  C11 UNL     1       1.002  -0.270  -0.299  1.00  0.00     0.003 A 
HETATM    3  C12 UNL     1       0.322  -0.319  -1.529  1.00  0.00     0.068 A 
HETATM    4  C13 UNL     1      -0.574  -1.343  -1.868  1.00  0.00     0.159 A 
HETATM    5  C14 UNL     1      -0.797  -2.357  -0.937  1.00  0.00     0.156 A 
HETATM    6  C15 UNL     1      -0.092  -2.326   0.264  1.00  0.00     0.028 A 
HETATM    7  O3  UNL     1      -1.704  -3.333  -1.194  1.00  0.00    -0.188 OA
HETATM    8  O4  UNL     1      -1.290  -1.353  -3.022  1.00  0.00    -0.188 OA
HETATM    9  C16 UNL     1       0.439   0.818  -2.488  1.00  0.00     0.223 C 
HETATM   10  C17 UNL     1      -0.104   2.078  -1.915  1.00  0.00     0.170 C 
HETATM   11  C18 UNL     1       0.487   2.654  -0.854  1.00  0.00     0.029 C 
HETATM   12  C19 UNL     1       1.737   2.167  -0.246  1.00  0.00     0.010 C 
HETATM   13  C20 UNL     1       1.939   0.845  -0.025  1.00  0.00    -0.002 C 
HETATM   14  O9  UNL     1      -1.204   2.549  -2.556  1.00  0.00    -0.187 OA
HETATM   15  O10 UNL     1       0.369   0.702  -3.708  1.00  0.00    -0.284 OA
ENDROOT
BRANCH   1  16
HETATM   16  C9  UNL     1       1.567  -1.432   1.952  1.00  0.00     0.174 C 
HETATM   17  C8  UNL     1       2.578  -2.568   2.041  1.00  0.00     0.188 C 
HETATM   18  C7  UNL     1       1.926  -3.943   2.142  1.00  0.00     0.066 C 
HETATM   19  O11 UNL     1       3.382  -2.372   3.183  1.00  0.00    -0.220 OA
HETATM   20  C4  UNL     1       0.672  -3.903   2.985  1.00  0.00     0.028 A 
HETATM   21  C3  UNL     1       0.161  -2.668   3.418  1.00  0.00     0.095 A 
HETATM   22  C5  UNL     1       0.004  -5.102   3.278  1.00  0.00     0.131 A 
HETATM   23  C2  UNL     1      -1.019  -2.681   4.171  1.00  0.00     0.051 A 
HETATM   24  O2  UNL     1       0.689  -1.460   3.052  1.00  0.00    -0.327 OA
HETATM   25  C1  UNL     1      -1.680  -3.856   4.530  1.00  0.00     0.135 A 
HETATM   26  C6  UNL     1      -1.165  -5.057   4.040  1.00  0.00     0.055 A 
HETATM   27  O12 UNL     1      -2.829  -3.831   5.255  1.00  0.00    -0.190 OA
HETATM   28  O1  UNL     1       0.448  -6.293   2.794  1.00  0.00    -0.190 OA
ENDBRANCH   1  16
BRANCH  12  29
HETATM   29  C21 UNL     1       2.799   3.151   0.255  1.00  0.00     0.174 C 
HETATM   30  O5  UNL     1       4.072   2.799  -0.244  1.00  0.00    -0.327 OA
HETATM   31  C22 UNL     1       4.265   3.064  -1.574  1.00  0.00     0.095 A 
HETATM   32  C23 UNL     1       3.513   4.020  -2.278  1.00  0.00     0.028 A 
HETATM   33  C29 UNL     1       5.191   2.299  -2.295  1.00  0.00     0.051 A 
HETATM   34  C24 UNL     1       2.535   4.901  -1.534  1.00  0.00     0.066 C 
HETATM   35  C26 UNL     1       3.668   4.182  -3.663  1.00  0.00     0.131 A 
HETATM   36  C25 UNL     1       2.632   4.639  -0.033  1.00  0.00     0.188 C 
HETATM   37  O6  UNL     1       1.533   5.184   0.655  1.00  0.00    -0.220 OA
HETATM   38  C27 UNL     1       4.613   3.399  -4.330  1.00  0.00     0.055 A 
HETATM   39  O8  UNL     1       2.899   5.066  -4.354  1.00  0.00    -0.190 OA
HETATM   40  C28 UNL     1       5.410   2.468  -3.662  1.00  0.00     0.135 A 
HETATM   41  O7  UNL     1       6.329   1.727  -4.336  1.00  0.00    -0.190 OA
ENDBRANCH  12  29
TORSDOF 2
