REMARK  7 active torsions:
REMARK  status: ('A' for Active; 'I' for Inactive)
REMARK    1  A    between atoms: C6_6  and  O1_7 
REMARK    2  A    between atoms: C9_10  and  C26_30 
REMARK    3  A    between atoms: C10_11  and  C20_24 
REMARK    4  A    between atoms: C11_12  and  C13_16 
REMARK    5  A    between atoms: C16_19  and  O4_22 
REMARK       I    between atoms: C26_30  and  N1_32 
REMARK    6  A    between atoms: C30_36  and  N2_37 
REMARK       I    between atoms: N2_37  and  C31_38 
REMARK    7  A    between atoms: C31_38  and  C32_39 
ROOT
HETATM    1  C1  UNL     1      -1.027   1.611   0.882  1.00  0.00     0.141 A 
HETATM    2  C2  UNL     1      -1.233   0.242   1.014  1.00  0.00     0.123 A 
HETATM    3  C3  UNL     1      -0.174  -0.647   1.132  1.00  0.00     0.050 A 
HETATM    4  C4  UNL     1       1.127  -0.131   1.145  1.00  0.00     0.097 A 
HETATM    5  C5  UNL     1       1.308   1.267   1.064  1.00  0.00     0.055 A 
HETATM    6  C6  UNL     1       0.248   2.189   0.927  1.00  0.00     0.119 A 
HETATM    7  C8  UNL     1       2.752   1.737   1.073  1.00  0.00     0.188 C 
HETATM    8  C9  UNL     1       3.375   1.546  -0.317  1.00  0.00     0.120 C 
HETATM    9  C10 UNL     1       3.740   0.050  -0.364  1.00  0.00     0.066 C 
HETATM   10  C11 UNL     1       3.470  -0.485   1.070  1.00  0.00     0.152 C 
HETATM   11  O2  UNL     1       2.176  -1.014   1.191  1.00  0.00    -0.329 OA
HETATM   12  C12 UNL     1       3.514   0.764   1.946  1.00  0.00     0.214 C 
HETATM   13  O3  UNL     1       2.877   0.535   3.181  1.00  0.00    -0.217 OA
HETATM   14  O7  UNL     1       2.930   3.050   1.541  1.00  0.00    -0.218 OA
HETATM   15  O8  UNL     1      -2.583  -0.043   0.963  1.00  0.00    -0.299 OA
HETATM   16  C35 UNL     1      -3.277   1.197   0.808  1.00  0.00     0.304 A 
HETATM   17  O9  UNL     1      -2.270   2.212   0.767  1.00  0.00    -0.298 OA
ENDROOT
BRANCH   8  18
HETATM   18  C26 UNL     1       4.284   2.697  -0.786  1.00  0.00     0.238 C 
HETATM   19  O5  UNL     1       3.757   3.646  -1.323  1.00  0.00    -0.272 OA
HETATM   20  N1  UNL     1       5.635   2.715  -0.494  1.00  0.00    -0.302 N 
HETATM   21  C27 UNL     1       6.444   3.905  -0.747  1.00  0.00     0.106 C 
HETATM   22  C30 UNL     1       6.495   1.666   0.050  1.00  0.00     0.192 C 
HETATM   23  C28 UNL     1       7.889   3.543  -0.375  1.00  0.00     0.028 C 
HETATM   24  C29 UNL     1       7.685   2.430   0.656  1.00  0.00     0.050 C 
BRANCH  22  25
HETATM   25  N2  UNL     1       6.970   0.824  -1.059  1.00  0.00    -0.217 NA
HETATM   26  C31 UNL     1       7.420  -0.455  -0.864  1.00  0.00     0.253 C 
HETATM   27  O6  UNL     1       7.415  -0.984   0.222  1.00  0.00    -0.271 OA
BRANCH  26  28
HETATM   28  C32 UNL     1       7.925  -1.147  -2.123  1.00  0.00     0.081 C 
HETATM   29  C33 UNL     1       7.936  -2.678  -1.972  1.00  0.00     0.010 C 
HETATM   30  C34 UNL     1       9.324  -0.627  -2.485  1.00  0.00     0.010 C 
ENDBRANCH  26  28
ENDBRANCH  22  25
ENDBRANCH   8  18
BRANCH   9  31
HETATM   31  C20 UNL     1       3.137  -0.709  -1.543  1.00  0.00    -0.019 A 
HETATM   32  C21 UNL     1       3.955  -1.507  -2.356  1.00  0.00    -0.004 A 
HETATM   33  C22 UNL     1       3.454  -2.210  -3.454  1.00  0.00    -0.000 A 
HETATM   34  C23 UNL     1       2.101  -2.122  -3.780  1.00  0.00    -0.000 A 
HETATM   35  C24 UNL     1       1.268  -1.318  -3.002  1.00  0.00    -0.000 A 
HETATM   36  C25 UNL     1       1.786  -0.621  -1.909  1.00  0.00    -0.004 A 
ENDBRANCH   9  31
BRANCH  10  37
HETATM   37  C13 UNL     1       4.470  -1.556   1.490  1.00  0.00     0.005 A 
HETATM   38  C14 UNL     1       5.309  -1.440   2.603  1.00  0.00     0.000 A 
HETATM   39  C15 UNL     1       6.253  -2.422   2.909  1.00  0.00     0.024 A 
HETATM   40  C16 UNL     1       6.405  -3.589   2.149  1.00  0.00     0.094 A 
HETATM   41  C17 UNL     1       5.552  -3.703   1.042  1.00  0.00     0.024 A 
HETATM   42  C18 UNL     1       4.594  -2.732   0.743  1.00  0.00     0.000 A 
BRANCH  40  43
HETATM   43  O4  UNL     1       7.400  -4.473   2.480  1.00  0.00    -0.328 OA
HETATM   44  C19 UNL     1       7.818  -5.393   1.498  1.00  0.00     0.181 C 
ENDBRANCH  40  43
ENDBRANCH  10  37
BRANCH   6  45
HETATM   45  O1  UNL     1       0.525   3.517   0.725  1.00  0.00    -0.326 OA
HETATM   46  C7  UNL     1      -0.480   4.368   0.234  1.00  0.00     0.181 C 
ENDBRANCH   6  45
TORSDOF 7
