REMARK  2 active torsions:
REMARK  status: ('A' for Active; 'I' for Inactive)
REMARK    1  A    between atoms: C3_3  and  C28_32 
REMARK    2  A    between atoms: C16_17  and  C24_25 
ROOT
HETATM    1  C1  UNL     1       1.478  -2.486  -0.584  1.00  0.00    -0.003 C 
HETATM    2  C2  UNL     1       1.528  -2.550   1.148  1.00  0.00     0.108 C 
HETATM    3  C3  UNL     1       0.278  -1.937   2.197  1.00  0.00     0.099 C 
HETATM    4  C4  UNL     1      -0.974  -0.967   1.280  1.00  0.00     0.141 A 
HETATM    5  C5  UNL     1      -0.910  -0.576  -0.540  1.00  0.00     0.031 C 
HETATM    6  C6  UNL     1       0.228  -1.645  -1.524  1.00  0.00     0.030 C 
HETATM    7  C7  UNL     1       0.009   0.553  -0.620  1.00  0.00     0.007 C 
HETATM    8  C8  UNL     1       0.775  -0.542   0.169  1.00  0.00     0.008 C 
HETATM    9  C9  UNL     1      -0.446  -2.181   0.280  1.00  0.00     0.062 A 
HETATM   10  C10 UNL     1      -1.871  -2.027   0.866  1.00  0.00     0.180 A 
HETATM   11  O1  UNL     1      -2.355  -2.824   1.901  1.00  0.00    -0.221 OA
HETATM   12  C11 UNL     1       2.217   0.048  -0.733  1.00  0.00     0.015 C 
HETATM   13  C12 UNL     1       2.278   1.643  -0.645  1.00  0.00    -0.049 C 
HETATM   14  C13 UNL     1       1.238   2.470  -0.388  1.00  0.00    -0.035 C 
HETATM   15  C14 UNL     1      -0.171   1.979  -0.159  1.00  0.00     0.025 C 
HETATM   16  C15 UNL     1       3.682   2.216  -0.685  1.00  0.00     0.028 C 
HETATM   17  C16 UNL     1       4.470   1.114   0.053  1.00  0.00     0.082 C 
HETATM   18  C17 UNL     1       3.651  -0.196  -0.141  1.00  0.00     0.014 C 
HETATM   19  C18 UNL     1       5.939   1.000  -0.399  1.00  0.00     0.011 C 
HETATM   20  C19 UNL     1       6.166   1.266  -1.888  1.00  0.00     0.001 C 
HETATM   21  C20 UNL     1       5.657   2.667  -2.263  1.00  0.00     0.000 C 
HETATM   22  C21 UNL     1       4.127   2.723  -2.081  1.00  0.00     0.004 C 
HETATM   23  C22 UNL     1       3.573   4.137  -2.357  1.00  0.00     0.000 C 
HETATM   24  C23 UNL     1       6.109   3.011  -3.694  1.00  0.00     0.000 C 
HETATM   25  C25 UNL     1       2.474  -0.165  -2.273  1.00  0.00     0.004 C 
HETATM   26  C26 UNL     1       1.248   0.226   1.475  1.00  0.00     0.001 C 
HETATM   27  C27 UNL     1      -2.190  -0.217  -1.325  1.00  0.00     0.003 C 
HETATM   28  O4  UNL     1      -1.730  -0.082   2.051  1.00  0.00    -0.225 OA
HETATM   29  C29 UNL     1       0.622  -1.256   3.591  1.00  0.00     0.012 C 
HETATM   30  O6  UNL     1       2.793  -2.461   1.753  1.00  0.00    -0.195 OA
ENDROOT
BRANCH   3  31
HETATM   31  C28 UNL     1      -0.097  -3.332   2.901  1.00  0.00     0.191 C 
HETATM   32  O5  UNL     1       1.030  -3.867   3.584  1.00  0.00    -0.220 OA
ENDBRANCH   3  31
BRANCH  17  33
HETATM   33  C24 UNL     1       4.593   1.316   1.580  1.00  0.00     0.184 C 
HETATM   34  O2  UNL     1       5.116   0.543   2.349  1.00  0.00    -0.647 OA
HETATM   35  O3  UNL     1       4.108   2.481   2.046  1.00  0.00    -0.647 OA
ENDBRANCH  17  33
TORSDOF 2
