REMARK  2 active torsions:
REMARK  status: ('A' for Active; 'I' for Inactive)
REMARK    1  A    between atoms: C3_3  and  O3_17 
REMARK    2  A    between atoms: N1_10  and  C10_11 
ROOT
HETATM    1  C1  UNL     1      -2.358   1.600   0.035  1.00  0.00     0.002 A 
HETATM    2  C2  UNL     1      -2.254   0.217  -0.125  1.00  0.00     0.026 A 
HETATM    3  C3  UNL     1      -1.035  -0.469  -0.113  1.00  0.00     0.110 A 
HETATM    4  C4  UNL     1       0.170   0.296  -0.079  1.00  0.00     0.091 A 
HETATM    5  C5  UNL     1       0.055   1.704   0.074  1.00  0.00     0.057 A 
HETATM    6  C6  UNL     1      -1.195   2.344   0.145  1.00  0.00     0.005 A 
HETATM    7  C7  UNL     1       1.242   2.589   0.157  1.00  0.00     0.200 A 
HETATM    8  C8  UNL     1       2.537   1.916   0.087  1.00  0.00     0.081 A 
HETATM    9  C9  UNL     1       2.663   0.557  -0.056  1.00  0.00     0.171 A 
HETATM   10  N1  UNL     1       1.516  -0.228  -0.135  1.00  0.00    -0.288 N 
HETATM   11  O1  UNL     1       3.998   0.262  -0.073  1.00  0.00    -0.288 OA
HETATM   12  C12 UNL     1       4.684   1.444   0.055  1.00  0.00     0.125 A 
HETATM   13  C13 UNL     1       3.840   2.505   0.157  1.00  0.00     0.034 A 
HETATM   14  O2  UNL     1       1.183   3.812   0.281  1.00  0.00    -0.286 OA
ENDROOT
BRANCH   3  15
HETATM   15  O3  UNL     1      -1.089  -1.820  -0.345  1.00  0.00    -0.327 OA
HETATM   16  C14 UNL     1      -1.533  -2.581   0.758  1.00  0.00     0.181 C 
ENDBRANCH   3  15
BRANCH  10  17
HETATM   17  C10 UNL     1       1.715  -1.689  -0.310  1.00  0.00     0.056 C 
HETATM   18  C11 UNL     1       3.105  -2.337  -0.376  1.00  0.00     0.052 C 
ENDBRANCH  10  17
TORSDOF 2
