REMARK  9 active torsions:
REMARK  status: ('A' for Active; 'I' for Inactive)
REMARK    1  A    between atoms: C1_1  and  C2_2 
REMARK    2  A    between atoms: C1_1  and  C13_15 
REMARK    3  A    between atoms: C2_2  and  C3_3 
REMARK    4  A    between atoms: C3_3  and  C4_4 
REMARK    5  A    between atoms: C5_5  and  C6_6 
REMARK    6  A    between atoms: C6_6  and  O1_7 
REMARK    7  A    between atoms: O1_7  and  C7_8 
REMARK    8  A    between atoms: C7_8  and  C8_9 
REMARK    9  A    between atoms: C8_9  and  C9_10 
ROOT
HETATM    1  C4  UNL     1      -1.871   1.024   0.264  1.00  0.00    -0.032 C 
HETATM    2  C5  UNL     1      -0.901   0.104   0.107  1.00  0.00    -0.018 C 
HETATM    3  C12 UNL     1      -0.455  -0.471  -1.217  1.00  0.00     0.029 C 
ENDROOT
BRANCH   2   4
HETATM    4  C6  UNL     1      -0.125  -0.410   1.303  1.00  0.00     0.174 C 
BRANCH   4   5
HETATM    5  O1  UNL     1      -0.272  -1.809   1.422  1.00  0.00    -0.297 OA
BRANCH   5   6
HETATM    6  C7  UNL     1       0.533  -2.430   2.325  1.00  0.00     0.272 C 
HETATM    7  O2  UNL     1       1.320  -1.864   3.051  1.00  0.00    -0.264 OA
BRANCH   6   8
HETATM    8  C8  UNL     1       0.312  -3.932   2.303  1.00  0.00     0.096 C 
BRANCH   8   9
HETATM    9  C9  UNL     1       0.344  -4.571   0.901  1.00  0.00     0.010 C 
HETATM   10  C10 UNL     1       1.641  -4.227   0.148  1.00  0.00     0.001 C 
HETATM   11  C11 UNL     1       0.181  -6.097   1.006  1.00  0.00     0.001 C 
ENDBRANCH   8   9
ENDBRANCH   6   8
ENDBRANCH   5   6
ENDBRANCH   4   5
ENDBRANCH   2   4
BRANCH   1  12
HETATM   12  C3  UNL     1      -2.704   1.681  -0.806  1.00  0.00     0.028 C 
BRANCH  12  13
HETATM   13  C2  UNL     1      -2.627   3.218  -0.769  1.00  0.00     0.039 C 
BRANCH  13  14
HETATM   14  C1  UNL     1      -1.306   3.858  -1.232  1.00  0.00     0.146 C 
HETATM   15  C15 UNL     1      -0.129   3.555  -0.302  1.00  0.00     0.038 C 
HETATM   16  O3  UNL     1      -0.999   3.358  -2.516  1.00  0.00    -0.222 OA
BRANCH  14  17
HETATM   17  C13 UNL     1      -1.466   5.364  -1.332  1.00  0.00     0.003 C 
HETATM   18  C14 UNL     1      -0.586   6.172  -1.940  1.00  0.00    -0.002 C 
ENDBRANCH  14  17
ENDBRANCH  13  14
ENDBRANCH  12  13
ENDBRANCH   1  12
TORSDOF 9
