REMARK  4 active torsions:
REMARK  status: ('A' for Active; 'I' for Inactive)
REMARK    1  A    between atoms: C38_41  and  C42_45 
REMARK    2  A    between atoms: C42_45  and  O4_46 
REMARK    3  A    between atoms: C54_61  and  C58_65 
REMARK    4  A    between atoms: C58_65  and  O8_66 
ROOT
HETATM    1  C1  UNL     1      -2.440  -5.951   2.218  1.00  0.00     0.004 C 
HETATM    2  C2  UNL     1      -2.452  -7.463   1.966  1.00  0.00     0.000 C 
HETATM    3  C3  UNL     1      -1.339  -8.004   1.037  1.00  0.00     0.000 C 
HETATM    4  C4  UNL     1      -0.006  -7.211   1.127  1.00  0.00     0.001 C 
HETATM    5  C5  UNL     1      -0.063  -5.686   1.498  1.00  0.00     0.003 C 
HETATM    6  C6  UNL     1      -1.063  -5.388   2.662  1.00  0.00     0.015 C 
HETATM    7  C7  UNL     1      -1.076  -3.862   2.917  1.00  0.00    -0.038 C 
HETATM    8  C8  UNL     1       0.234  -3.117   3.180  1.00  0.00     0.034 C 
HETATM    9  C9  UNL     1       1.372  -3.693   2.303  1.00  0.00     0.008 C 
HETATM   10  C10 UNL     1       1.326  -5.193   1.990  1.00  0.00     0.001 C 
HETATM   11  C11 UNL     1       0.111  -1.618   2.872  1.00  0.00    -0.015 A 
HETATM   12  C12 UNL     1      -1.107  -0.920   2.877  1.00  0.00     0.033 A 
HETATM   13  C13 UNL     1      -2.333  -1.708   3.159  1.00  0.00     0.195 C 
HETATM   14  C14 UNL     1      -2.235  -3.176   2.981  1.00  0.00     0.034 C 
HETATM   15  O1  UNL     1      -3.423  -1.215   3.435  1.00  0.00    -0.287 OA
HETATM   16  C15 UNL     1      -1.179   0.454   2.553  1.00  0.00     0.005 A 
HETATM   17  C16 UNL     1       0.005   1.165   2.290  1.00  0.00     0.115 A 
HETATM   18  C17 UNL     1       1.227   0.503   2.374  1.00  0.00     0.116 A 
HETATM   19  C18 UNL     1       1.265  -0.855   2.681  1.00  0.00     0.022 A 
HETATM   20  O2  UNL     1       2.365   1.200   2.132  1.00  0.00    -0.324 OA
HETATM   21  C19 UNL     1       2.327   2.028   0.999  1.00  0.00     0.174 C 
HETATM   22  C20 UNL     1       0.955   2.683   0.820  1.00  0.00     0.305 C 
HETATM   23  O3  UNL     1       0.054   2.473   1.896  1.00  0.00    -0.298 OA
HETATM   24  C21 UNL     1       0.977   4.148   0.411  1.00  0.00     0.229 C 
HETATM   25  C22 UNL     1       2.248   4.874   0.242  1.00  0.00     0.038 C 
HETATM   26  C23 UNL     1       3.461   4.358   0.555  1.00  0.00    -0.018 C 
HETATM   27  C24 UNL     1       3.492   3.009   1.115  1.00  0.00     0.004 C 
HETATM   28  C25 UNL     1       4.660   2.577   1.652  1.00  0.00    -0.003 C 
HETATM   29  C26 UNL     1       5.912   3.287   1.480  1.00  0.00    -0.009 C 
HETATM   30  C27 UNL     1       6.010   4.419   0.750  1.00  0.00    -0.042 C 
HETATM   31  C28 UNL     1       4.734   5.209   0.428  1.00  0.00     0.034 C 
HETATM   32  C29 UNL     1       4.798   5.767  -1.009  1.00  0.00     0.008 C 
HETATM   33  C30 UNL     1       6.175   6.314  -1.408  1.00  0.00     0.001 C 
HETATM   34  C31 UNL     1       7.338   5.309  -1.190  1.00  0.00     0.003 C 
HETATM   35  C32 UNL     1       7.402   4.957   0.333  1.00  0.00     0.015 C 
HETATM   36  C33 UNL     1       8.554   3.920   0.481  1.00  0.00     0.004 C 
HETATM   37  C34 UNL     1       9.815   4.150  -0.379  1.00  0.00     0.000 C 
HETATM   38  C35 UNL     1       9.982   5.525  -1.060  1.00  0.00     0.000 C 
HETATM   39  C36 UNL     1       8.661   5.934  -1.777  1.00  0.00     0.001 C 
HETATM   40  C37 UNL     1       8.765   5.716  -3.311  1.00  0.00     0.009 C 
HETATM   41  C38 UNL     1       9.908   6.408  -4.084  1.00  0.00     0.078 C 
HETATM   42  C39 UNL     1      11.075   6.594  -3.079  1.00  0.00     0.009 C 
HETATM   43  C40 UNL     1      11.138   5.416  -2.096  1.00  0.00     0.001 C 
HETATM   44  C41 UNL     1       9.523   7.814  -4.593  1.00  0.00     0.010 C 
HETATM   45  C44 UNL     1      10.472   6.593  -0.038  1.00  0.00     0.000 C 
HETATM   46  C45 UNL     1       7.708   6.091   1.339  1.00  0.00     0.004 C 
HETATM   47  C46 UNL     1       6.956   4.010  -1.969  1.00  0.00     0.000 C 
HETATM   48  C47 UNL     1       4.564   6.359   1.449  1.00  0.00     0.008 C 
HETATM   49  O6  UNL     1      -0.105   4.658   0.140  1.00  0.00    -0.286 OA
HETATM   50  O7  UNL     1       0.194   2.053  -0.207  1.00  0.00    -0.184 OA
HETATM   51  C48 UNL     1       2.679   1.145  -0.217  1.00  0.00     0.041 C 
HETATM   52  C49 UNL     1      -2.504   1.175   2.427  1.00  0.00     0.033 C 
HETATM   53  C50 UNL     1       0.611  -3.141   4.679  1.00  0.00     0.008 C 
HETATM   54  C51 UNL     1      -0.737  -6.095   4.003  1.00  0.00     0.004 C 
HETATM   55  C52 UNL     1      -0.427  -4.835   0.259  1.00  0.00     0.000 C 
HETATM   56  C53 UNL     1       0.976  -7.635  -0.004  1.00  0.00     0.009 C 
HETATM   57  C54 UNL     1       0.497  -7.855  -1.463  1.00  0.00     0.078 C 
HETATM   58  C55 UNL     1      -0.874  -8.582  -1.433  1.00  0.00     0.009 C 
HETATM   59  C56 UNL     1      -1.873  -8.023  -0.413  1.00  0.00     0.001 C 
HETATM   60  C57 UNL     1       1.443  -8.832  -2.209  1.00  0.00     0.010 C 
HETATM   61  C60 UNL     1      -1.099  -9.475   1.482  1.00  0.00     0.000 C 
ENDROOT
BRANCH  41  62
HETATM   62  C42 UNL     1      10.435   5.580  -5.282  1.00  0.00     0.271 C 
HETATM   63  O5  UNL     1      11.629   5.489  -5.482  1.00  0.00    -0.264 OA
BRANCH  62  64
HETATM   64  O4  UNL     1       9.581   4.916  -6.117  1.00  0.00    -0.299 OA
HETATM   65  C43 UNL     1       8.179   5.008  -6.133  1.00  0.00     0.184 C 
ENDBRANCH  62  64
ENDBRANCH  41  62
BRANCH  57  66
HETATM   66  C58 UNL     1       0.327  -6.556  -2.281  1.00  0.00     0.271 C 
HETATM   67  O9  UNL     1      -0.781  -6.182  -2.608  1.00  0.00    -0.264 OA
BRANCH  66  68
HETATM   68  O8  UNL     1       1.401  -5.771  -2.597  1.00  0.00    -0.299 OA
HETATM   69  C59 UNL     1       2.752  -6.149  -2.554  1.00  0.00     0.184 C 
ENDBRANCH  66  68
ENDBRANCH  57  66
TORSDOF 4
