REMARK  8 active torsions:
REMARK  status: ('A' for Active; 'I' for Inactive)
REMARK    1  A    between atoms: C3_3  and  C7_9 
REMARK    2  A    between atoms: C7_9  and  C8_10 
REMARK    3  A    between atoms: C11_14  and  C32_37 
REMARK    4  A    between atoms: C15_18  and  C27_31 
REMARK    5  A    between atoms: C18_22  and  C20_24 
REMARK    6  A    between atoms: C20_24  and  C21_25 
REMARK    7  A    between atoms: C27_31  and  C28_32 
REMARK    8  A    between atoms: C32_37  and  C33_38 
ROOT
HETATM    1  C8  UNL     1       2.496   0.681  -0.724  1.00  0.00     0.092 C 
HETATM    2  C9  UNL     1       2.873  -0.537  -0.254  1.00  0.00     0.083 C 
HETATM    3  O3  UNL     1       2.094  -1.645  -0.423  1.00  0.00    -0.339 OA
HETATM    4  C10 UNL     1       2.662  -2.811  -0.946  1.00  0.00     0.098 C 
HETATM    5  C11 UNL     1       4.190  -2.663  -1.119  1.00  0.00     0.031 C 
HETATM    6  C12 UNL     1       4.796  -2.075   0.168  1.00  0.00     0.016 C 
HETATM    7  C13 UNL     1       4.149  -0.723   0.546  1.00  0.00     0.092 C 
HETATM    8  C14 UNL     1       5.076   0.450   0.253  1.00  0.00     0.162 C 
HETATM    9  C15 UNL     1       4.476   1.829   0.555  1.00  0.00     0.111 C 
HETATM   10  C16 UNL     1       3.284   1.903  -0.413  1.00  0.00     0.184 C 
HETATM   11  O4  UNL     1       3.002   2.922  -1.030  1.00  0.00    -0.291 OA
HETATM   12  C17 UNL     1       4.097   1.866   2.082  1.00  0.00     0.013 C 
HETATM   13  C18 UNL     1       3.295   0.617   2.587  1.00  0.00     0.006 C 
HETATM   14  C19 UNL     1       3.892  -0.699   2.059  1.00  0.00     0.013 C 
HETATM   15  C25 UNL     1       5.408   1.910   2.921  1.00  0.00     0.001 C 
HETATM   16  C26 UNL     1       3.318   3.142   2.479  1.00  0.00     0.001 C 
HETATM   17  O5  UNL     1       6.170   0.309  -0.245  1.00  0.00    -0.295 OA
HETATM   18  C37 UNL     1       1.954  -3.072  -2.287  1.00  0.00     0.030 C 
HETATM   19  C38 UNL     1       2.260  -3.947   0.011  1.00  0.00     0.030 C 
ENDROOT
BRANCH   1  20
HETATM   20  C7  UNL     1       1.296   0.786  -1.636  1.00  0.00     0.200 C 
HETATM   21  O6  UNL     1       1.205  -0.016  -2.561  1.00  0.00    -0.286 OA
BRANCH  20  22
HETATM   22  C3  UNL     1       0.263   1.851  -1.485  1.00  0.00     0.041 A 
HETATM   23  C2  UNL     1       0.203   2.721  -0.387  1.00  0.00     0.005 A 
HETATM   24  C1  UNL     1      -0.771   3.715  -0.320  1.00  0.00     0.030 A 
HETATM   25  C6  UNL     1      -1.728   3.861  -1.329  1.00  0.00     0.156 A 
HETATM   26  C5  UNL     1      -1.704   2.982  -2.416  1.00  0.00     0.156 A 
HETATM   27  O1  UNL     1      -2.670   4.837  -1.264  1.00  0.00    -0.188 OA
HETATM   28  C4  UNL     1      -0.714   1.996  -2.482  1.00  0.00     0.033 A 
HETATM   29  O2  UNL     1      -2.642   3.119  -3.390  1.00  0.00    -0.188 OA
ENDBRANCH  20  22
ENDBRANCH   1  20
BRANCH   9  30
HETATM   30  C27 UNL     1       5.527   2.898   0.116  1.00  0.00     0.040 C 
BRANCH  30  31
HETATM   31  C28 UNL     1       5.176   4.348   0.364  1.00  0.00    -0.034 C 
HETATM   32  C29 UNL     1       5.895   5.286   1.008  1.00  0.00    -0.048 C 
HETATM   33  C30 UNL     1       5.345   6.684   1.191  1.00  0.00     0.026 C 
HETATM   34  C31 UNL     1       7.257   5.084   1.627  1.00  0.00     0.026 C 
ENDBRANCH  30  31
ENDBRANCH   9  30
BRANCH   5  35
HETATM   35  C32 UNL     1       4.966  -3.950  -1.484  1.00  0.00     0.028 C 
BRANCH  35  36
HETATM   36  C33 UNL     1       4.591  -4.539  -2.820  1.00  0.00    -0.035 C 
HETATM   37  C34 UNL     1       4.205  -5.801  -3.085  1.00  0.00    -0.048 C 
HETATM   38  C35 UNL     1       3.812  -6.211  -4.487  1.00  0.00     0.026 C 
HETATM   39  C36 UNL     1       4.090  -6.912  -2.070  1.00  0.00     0.026 C 
ENDBRANCH  35  36
ENDBRANCH   5  35
BRANCH  13  40
HETATM   40  C20 UNL     1       1.751   0.663   2.475  1.00  0.00     0.025 C 
BRANCH  40  41
HETATM   41  C21 UNL     1       1.062  -0.585   2.982  1.00  0.00    -0.035 C 
HETATM   42  C22 UNL     1       0.050  -1.259   2.404  1.00  0.00    -0.048 C 
HETATM   43  C23 UNL     1      -0.491  -2.527   3.026  1.00  0.00     0.026 C 
HETATM   44  C24 UNL     1      -0.650  -0.867   1.125  1.00  0.00     0.026 C 
ENDBRANCH  40  41
ENDBRANCH  13  40
TORSDOF 8
