REMARK  23 active torsions:
REMARK  status: ('A' for Active; 'I' for Inactive)
REMARK    1  A    between atoms: C2_2  and  C6_8 
REMARK    2  A    between atoms: C6_8  and  C7_9 
REMARK    3  A    between atoms: C7_9  and  C8_10 
REMARK    4  A    between atoms: C8_10  and  C9_11 
REMARK    5  A    between atoms: C9_11  and  C10_12 
REMARK    6  A    between atoms: C10_12  and  C11_13 
REMARK    7  A    between atoms: C11_13  and  C12_14 
REMARK    8  A    between atoms: C12_14  and  C13_15 
REMARK    9  A    between atoms: C13_15  and  C14_16 
REMARK   10  A    between atoms: C14_16  and  C15_17 
REMARK   11  A    between atoms: C15_17  and  C16_18 
REMARK   12  A    between atoms: C16_18  and  C17_19 
REMARK   13  A    between atoms: C20_22  and  C21_24 
REMARK   14  A    between atoms: C24_27  and  C25_29 
REMARK   15  A    between atoms: C25_29  and  C26_30 
REMARK   16  A    between atoms: C26_30  and  C27_31 
REMARK   17  A    between atoms: C27_31  and  C28_32 
REMARK   18  A    between atoms: C28_32  and  C29_33 
REMARK   19  A    between atoms: C29_33  and  C30_34 
REMARK   20  A    between atoms: C30_34  and  C31_35 
REMARK   21  A    between atoms: C31_35  and  C32_36 
REMARK   22  A    between atoms: C32_36  and  C33_37 
REMARK   23  A    between atoms: C33_37  and  C34_38 
ROOT
HETATM    1  C17 UNL     1       4.362  -0.657   0.562  1.00  0.00     0.146 C 
HETATM    2  C18 UNL     1       3.410  -1.429   1.466  1.00  0.00     0.035 C 
HETATM    3  C19 UNL     1       3.034  -2.584   0.542  1.00  0.00     0.035 C 
HETATM    4  C20 UNL     1       3.018  -1.891  -0.823  1.00  0.00     0.142 C 
HETATM    5  O3  UNL     1       3.794  -0.723  -0.718  1.00  0.00    -0.354 OA
ENDROOT
BRANCH   1   6
HETATM    6  C16 UNL     1       5.783  -1.207   0.495  1.00  0.00     0.179 C 
HETATM    7  O6  UNL     1       6.521  -0.384  -0.379  1.00  0.00    -0.221 OA
BRANCH   6   8
HETATM    8  C15 UNL     1       6.514  -1.319   1.833  1.00  0.00     0.035 C 
BRANCH   8   9
HETATM    9  C14 UNL     1       6.696  -0.001   2.606  1.00  0.00     0.003 C 
BRANCH   9  10
HETATM   10  C13 UNL     1       7.307  -0.256   3.997  1.00  0.00     0.000 C 
BRANCH  10  11
HETATM   11  C12 UNL     1       8.287   0.841   4.450  1.00  0.00     0.000 C 
BRANCH  11  12
HETATM   12  C11 UNL     1       9.066   0.482   5.731  1.00  0.00     0.000 C 
BRANCH  12  13
HETATM   13  C10 UNL     1      10.407  -0.248   5.505  1.00  0.00     0.000 C 
BRANCH  13  14
HETATM   14  C9  UNL     1      10.280  -1.571   4.737  1.00  0.00     0.000 C 
BRANCH  14  15
HETATM   15  C8  UNL     1      11.585  -2.379   4.650  1.00  0.00     0.000 C 
BRANCH  15  16
HETATM   16  C7  UNL     1      11.390  -3.700   3.883  1.00  0.00     0.001 C 
BRANCH  16  17
HETATM   17  C6  UNL     1      11.254  -3.516   2.360  1.00  0.00     0.013 C 
BRANCH  17  18
HETATM   18  C2  UNL     1      10.733  -4.775   1.646  1.00  0.00     0.119 C 
HETATM   19  C1  UNL     1       9.214  -4.910   1.567  1.00  0.00     0.189 C 
HETATM   20  C4  UNL     1       8.889  -4.254   0.239  1.00  0.00     0.155 C 
HETATM   21  O7  UNL     1       8.539  -4.280   2.626  1.00  0.00    -0.220 OA
HETATM   22  O1  UNL     1      10.014  -4.443  -0.569  1.00  0.00    -0.302 OA
HETATM   23  C5  UNL     1       7.641  -4.823  -0.428  1.00  0.00     0.035 C 
HETATM   24  C3  UNL     1      11.108  -4.757   0.172  1.00  0.00     0.274 C 
HETATM   25  O2  UNL     1      12.211  -4.969  -0.280  1.00  0.00    -0.264 OA
ENDBRANCH  17  18
ENDBRANCH  16  17
ENDBRANCH  15  16
ENDBRANCH  14  15
ENDBRANCH  13  14
ENDBRANCH  12  13
ENDBRANCH  11  12
ENDBRANCH  10  11
ENDBRANCH   9  10
ENDBRANCH   8   9
ENDBRANCH   6   8
ENDBRANCH   1   6
BRANCH   4  26
HETATM   26  C21 UNL     1       1.600  -1.524  -1.248  1.00  0.00     0.142 C 
HETATM   27  C22 UNL     1       0.674  -2.729  -1.436  1.00  0.00     0.035 C 
HETATM   28  C23 UNL     1       0.070  -2.506  -2.825  1.00  0.00     0.035 C 
HETATM   29  C24 UNL     1       0.348  -1.025  -3.063  1.00  0.00     0.146 C 
HETATM   30  O4  UNL     1       1.600  -0.827  -2.465  1.00  0.00    -0.354 OA
BRANCH  29  31
HETATM   31  C25 UNL     1      -0.697  -0.074  -2.477  1.00  0.00     0.179 C 
HETATM   32  O5  UNL     1      -1.986  -0.468  -2.884  1.00  0.00    -0.221 OA
BRANCH  31  33
HETATM   33  C26 UNL     1      -0.464   1.392  -2.862  1.00  0.00     0.035 C 
BRANCH  33  34
HETATM   34  C27 UNL     1      -1.053   1.801  -4.225  1.00  0.00     0.003 C 
BRANCH  34  35
HETATM   35  C28 UNL     1      -0.674   3.243  -4.606  1.00  0.00     0.000 C 
BRANCH  35  36
HETATM   36  C29 UNL     1      -1.781   3.962  -5.399  1.00  0.00     0.000 C 
BRANCH  36  37
HETATM   37  C30 UNL     1      -1.495   5.451  -5.669  1.00  0.00     0.000 C 
BRANCH  37  38
HETATM   38  C31 UNL     1      -1.998   6.427  -4.586  1.00  0.00     0.000 C 
BRANCH  38  39
HETATM   39  C32 UNL     1      -1.368   6.217  -3.202  1.00  0.00     0.000 C 
BRANCH  39  40
HETATM   40  C33 UNL     1      -1.737   7.312  -2.190  1.00  0.00     0.000 C 
BRANCH  40  41
HETATM   41  C34 UNL     1      -0.967   7.184  -0.863  1.00  0.00     0.000 C 
HETATM   42  C35 UNL     1      -1.202   5.854  -0.135  1.00  0.00     0.000 C 
ENDBRANCH  40  41
ENDBRANCH  39  40
ENDBRANCH  38  39
ENDBRANCH  37  38
ENDBRANCH  36  37
ENDBRANCH  35  36
ENDBRANCH  34  35
ENDBRANCH  33  34
ENDBRANCH  31  33
ENDBRANCH  29  31
ENDBRANCH   4  26
TORSDOF 23
