REMARK  4 active torsions:
REMARK  status: ('A' for Active; 'I' for Inactive)
REMARK    1  A    between atoms: C5_5  and  O1_9 
REMARK    2  A    between atoms: O1_9  and  C9_10 
REMARK    3  A    between atoms: C9_10  and  C10_11 
REMARK    4  A    between atoms: C10_11  and  C11_12 
ROOT
HETATM    1  C1  UNL     1      -0.364  -3.120  -1.339  1.00  0.00     0.027 C 
HETATM    2  C2  UNL     1       0.374  -3.428  -0.008  1.00  0.00     0.053 C 
HETATM    3  C3  UNL     1       0.994  -2.201   0.666  1.00  0.00     0.135 C 
HETATM    4  C4  UNL     1       2.121  -1.556  -0.174  1.00  0.00     0.084 C 
HETATM    5  C5  UNL     1       1.668  -0.430  -1.103  1.00  0.00     0.135 C 
HETATM    6  C6  UNL     1       0.751  -0.955  -2.209  1.00  0.00     0.053 C 
HETATM    7  C7  UNL     1      -0.493  -1.643  -1.685  1.00  0.00    -0.042 C 
HETATM    8  C8  UNL     1      -1.624  -0.929  -1.559  1.00  0.00    -0.009 C 
HETATM    9  C17 UNL     1       3.103  -1.134   0.885  1.00  0.00     0.045 C 
HETATM   10  C18 UNL     1       2.694  -1.874   2.088  1.00  0.00     0.292 C 
HETATM   11  O4  UNL     1       1.517  -2.529   1.933  1.00  0.00    -0.300 OA
HETATM   12  O5  UNL     1       3.354  -1.919   3.121  1.00  0.00    -0.260 OA
HETATM   13  C19 UNL     1       4.152  -0.298   0.807  1.00  0.00     0.001 C 
HETATM   14  C20 UNL     1      -0.662  -4.130   0.847  1.00  0.00    -0.012 C 
HETATM   15  C21 UNL     1      -2.020  -4.043   0.217  1.00  0.00     0.171 C 
HETATM   16  C22 UNL     1      -1.687  -3.911  -1.262  1.00  0.00     0.042 C 
HETATM   17  O6  UNL     1      -2.673  -2.900   0.727  1.00  0.00    -0.219 OA
HETATM   18  C23 UNL     1      -0.436  -4.769   2.002  1.00  0.00    -0.007 C 
ENDROOT
BRANCH   5  19
HETATM   19  O1  UNL     1       1.039   0.554  -0.334  1.00  0.00    -0.303 OA
BRANCH  19  20
HETATM   20  C9  UNL     1       0.945   1.815  -0.834  1.00  0.00     0.276 C 
HETATM   21  O3  UNL     1       1.339   2.160  -1.925  1.00  0.00    -0.264 OA
BRANCH  20  22
HETATM   22  C10 UNL     1       0.298   2.739   0.185  1.00  0.00     0.122 C 
BRANCH  22  23
HETATM   23  C11 UNL     1       0.952   4.100   0.241  1.00  0.00    -0.012 A 
HETATM   24  C12 UNL     1       0.185   5.269   0.285  1.00  0.00    -0.002 A 
HETATM   25  C13 UNL     1       0.794   6.525   0.339  1.00  0.00     0.027 A 
HETATM   26  C14 UNL     1       2.186   6.658   0.351  1.00  0.00     0.131 A 
HETATM   27  C15 UNL     1       2.949   5.487   0.311  1.00  0.00     0.027 A 
HETATM   28  O2  UNL     1       2.783   7.878   0.399  1.00  0.00    -0.190 OA
HETATM   29  C16 UNL     1       2.345   4.229   0.262  1.00  0.00    -0.002 A 
ENDBRANCH  22  23
ENDBRANCH  20  22
ENDBRANCH  19  20
ENDBRANCH   5  19
TORSDOF 4
