REMARK  4 active torsions:
REMARK  status: ('A' for Active; 'I' for Inactive)
REMARK    1  A    between atoms: C3_3  and  O3_9 
REMARK    2  A    between atoms: C5_6  and  C6_7 
REMARK    3  A    between atoms: O3_9  and  C7_10 
REMARK    4  A    between atoms: C8_12  and  C12_19 
ROOT
HETATM    1  C1  UNL     1       5.987   0.497   0.558  1.00  0.00     0.035 C 
HETATM    2  C2  UNL     1       4.823  -0.440   0.190  1.00  0.00     0.089 C 
HETATM    3  C3  UNL     1       3.564   0.372  -0.074  1.00  0.00     0.244 C 
HETATM    4  O1  UNL     1       3.765   1.380  -1.043  1.00  0.00    -0.304 OA
HETATM    5  C4  UNL     1       4.880   2.152  -0.918  1.00  0.00     0.118 C 
HETATM    6  C5  UNL     1       5.934   1.821  -0.149  1.00  0.00     0.044 C 
HETATM    7  C13 UNL     1       4.755  -1.446   1.365  1.00  0.00     0.132 C 
HETATM    8  C14 UNL     1       5.693  -0.893   2.454  1.00  0.00     0.031 C 
HETATM    9  C15 UNL     1       5.921   0.577   2.085  1.00  0.00     0.007 C 
HETATM   10  O9  UNL     1       5.278  -2.672   0.917  1.00  0.00    -0.226 OA
HETATM   11  C16 UNL     1       3.377  -1.750   1.954  1.00  0.00     0.033 C 
ENDROOT
BRANCH   3  12
HETATM   12  O3  UNL     1       2.602  -0.450  -0.700  1.00  0.00    -0.304 OA
BRANCH  12  13
HETATM   13  C7  UNL     1       1.316   0.128  -0.796  1.00  0.00     0.272 C 
HETATM   14  O4  UNL     1       0.513  -0.602   0.106  1.00  0.00    -0.326 OA
HETATM   15  C8  UNL     1      -0.832  -0.198   0.080  1.00  0.00     0.184 C 
HETATM   16  C9  UNL     1      -1.408  -0.399  -1.319  1.00  0.00     0.215 C 
HETATM   17  C10 UNL     1      -0.597   0.379  -2.334  1.00  0.00     0.220 C 
HETATM   18  O7  UNL     1      -2.735   0.062  -1.390  1.00  0.00    -0.218 OA
HETATM   19  C11 UNL     1       0.844  -0.056  -2.219  1.00  0.00     0.241 C 
HETATM   20  O6  UNL     1      -1.076   0.105  -3.626  1.00  0.00    -0.218 OA
HETATM   21  O5  UNL     1       1.640   0.741  -3.062  1.00  0.00    -0.215 OA
BRANCH  15  22
HETATM   22  C12 UNL     1      -1.601  -0.982   1.141  1.00  0.00     0.214 C 
HETATM   23  O8  UNL     1      -2.122  -0.097   2.114  1.00  0.00    -0.218 OA
ENDBRANCH  15  22
ENDBRANCH  12  13
ENDBRANCH   3  12
BRANCH   6  24
HETATM   24  C6  UNL     1       7.082   2.757  -0.056  1.00  0.00     0.232 C 
HETATM   25  O2  UNL     1       8.085   2.510   0.598  1.00  0.00    -0.283 OA
ENDBRANCH   6  24
TORSDOF 4
