REMARK  3 active torsions:
REMARK  status: ('A' for Active; 'I' for Inactive)
REMARK    1  A    between atoms: C4_4  and  C7_7 
REMARK    2  A    between atoms: C7_7  and  C8_8 
REMARK    3  A    between atoms: C9_9  and  C10_10 
ROOT
HETATM    1  C1  UNL     1       2.274  -0.488   2.701  1.00  0.00     0.178 C 
HETATM    2  C2  UNL     1       3.353  -0.691   1.632  1.00  0.00     0.106 C 
HETATM    3  C3  UNL     1       2.671  -0.363   0.314  1.00  0.00     0.172 C 
HETATM    4  C4  UNL     1       1.329   0.180   0.619  1.00  0.00     0.011 C 
HETATM    5  C5  UNL     1       1.120   0.119   1.948  1.00  0.00    -0.015 C 
HETATM    6  C6  UNL     1      -0.118   0.542   2.686  1.00  0.00     0.029 C 
HETATM    7  O1  UNL     1       3.165  -0.489  -0.796  1.00  0.00    -0.292 OA
HETATM    8  O2  UNL     1       1.885  -1.735   3.242  1.00  0.00    -0.218 OA
ENDROOT
BRANCH   4   9
HETATM    9  C7  UNL     1       0.364   0.669  -0.425  1.00  0.00     0.054 C 
BRANCH   9  10
HETATM   10  C8  UNL     1      -0.650  -0.397  -0.749  1.00  0.00    -0.026 C 
HETATM   11  C9  UNL     1      -1.317  -0.529  -1.907  1.00  0.00    -0.030 C 
BRANCH  11  12
HETATM   12  C10 UNL     1      -1.189   0.356  -3.122  1.00  0.00     0.026 C 
HETATM   13  C11 UNL     1      -2.570   0.787  -3.637  1.00  0.00     0.005 C 
ENDBRANCH  11  12
ENDBRANCH   9  10
ENDBRANCH   4   9
TORSDOF 3
