REMARK  5 active torsions:
REMARK  status: ('A' for Active; 'I' for Inactive)
REMARK    1  A    between atoms: C5_5  and  C7_7 
REMARK    2  A    between atoms: C8_8  and  C9_9 
REMARK    3  A    between atoms: C9_9  and  O1_10 
REMARK    4  A    between atoms: O1_10  and  C10_11 
REMARK    5  A    between atoms: C23_25  and  C25_28 
ROOT
HETATM    1  C10 UNL     1      -0.496  -0.240  -0.116  1.00  0.00     0.161 C 
HETATM    2  C11 UNL     1      -0.557  -1.776   0.089  1.00  0.00     0.093 C 
HETATM    3  C12 UNL     1      -1.312  -1.951   1.418  1.00  0.00     0.157 C 
HETATM    4  C13 UNL     1      -2.273  -0.765   1.534  1.00  0.00     0.034 C 
HETATM    5  C14 UNL     1      -1.901   0.169   0.368  1.00  0.00     0.038 C 
HETATM    6  C15 UNL     1      -2.256  -0.041   2.889  1.00  0.00     0.003 C 
HETATM    7  O2  UNL     1      -0.398  -1.977   2.489  1.00  0.00    -0.223 OA
HETATM    8  C16 UNL     1       0.780  -2.521   0.058  1.00  0.00     0.145 A 
HETATM    9  C17 UNL     1       1.105  -3.495  -0.958  1.00  0.00     0.118 A 
HETATM   10  C18 UNL     1       2.587  -3.772  -1.216  1.00  0.00     0.030 C 
HETATM   11  C19 UNL     1       3.176  -3.503  -2.617  1.00  0.00     0.003 C 
HETATM   12  C20 UNL     1       3.743  -2.197  -3.190  1.00  0.00     0.004 A 
HETATM   13  C21 UNL     1       3.062  -0.843  -3.251  1.00  0.00     0.022 A 
HETATM   14  C22 UNL     1       1.770  -0.818  -2.549  1.00  0.00    -0.025 C 
HETATM   15  C23 UNL     1       1.156   0.295  -2.119  1.00  0.00     0.043 C 
HETATM   16  C24 UNL     1      -0.264   0.122  -1.594  1.00  0.00     0.196 C 
HETATM   17  O3  UNL     1      -1.189   0.260  -2.380  1.00  0.00    -0.289 OA
HETATM   18  C26 UNL     1       4.286  -1.036  -2.379  1.00  0.00     0.004 A 
HETATM   19  C27 UNL     1       5.598  -0.456  -2.898  1.00  0.00     0.000 C 
HETATM   20  C28 UNL     1       4.180  -0.967  -0.866  1.00  0.00     0.000 C 
HETATM   21  O5  UNL     1       0.656  -3.838   0.539  1.00  0.00    -0.357 OA
HETATM   22  C29 UNL     1       0.097  -4.149  -1.895  1.00  0.00     0.032 C 
ENDROOT
BRANCH   1  23
HETATM   23  O1  UNL     1       0.513   0.265   0.722  1.00  0.00    -0.296 OA
BRANCH  23  24
HETATM   24  C9  UNL     1       0.689   1.610   0.856  1.00  0.00     0.296 C 
HETATM   25  O6  UNL     1      -0.009   2.398   0.223  1.00  0.00    -0.259 OA
BRANCH  24  26
HETATM   26  C8  UNL     1       1.769   2.145   1.718  1.00  0.00     0.068 C 
HETATM   27  C7  UNL     1       1.997   3.475   1.861  1.00  0.00     0.005 C 
BRANCH  27  28
HETATM   28  C5  UNL     1       3.052   4.090   2.679  1.00  0.00     0.000 A 
HETATM   29  C4  UNL     1       3.114   5.495   2.744  1.00  0.00     0.000 A 
HETATM   30  C3  UNL     1       4.098   6.142   3.491  1.00  0.00     0.000 A 
HETATM   31  C2  UNL     1       5.048   5.395   4.191  1.00  0.00     0.000 A 
HETATM   32  C1  UNL     1       5.003   4.002   4.138  1.00  0.00     0.000 A 
HETATM   33  C6  UNL     1       4.016   3.356   3.389  1.00  0.00     0.000 A 
ENDBRANCH  27  28
ENDBRANCH  24  26
ENDBRANCH  23  24
ENDBRANCH   1  23
BRANCH  15  34
HETATM   34  C25 UNL     1       1.723   1.677  -2.324  1.00  0.00     0.211 C 
HETATM   35  O4  UNL     1       2.817   1.916  -1.451  1.00  0.00    -0.215 OA
ENDBRANCH  15  34
TORSDOF 5
