REMARK  1 active torsions:
REMARK  status: ('A' for Active; 'I' for Inactive)
REMARK    1  A    between atoms: C15_19  and  C17_21 
ROOT
HETATM    1  C1  UNL     1      -1.435   1.906  -1.663  1.00  0.00     0.143 C 
HETATM    2  O1  UNL     1      -1.459   0.717  -0.911  1.00  0.00    -0.329 OA
HETATM    3  C2  UNL     1      -0.276   0.037  -0.800  1.00  0.00     0.098 A 
HETATM    4  C3  UNL     1       0.977   0.659  -0.926  1.00  0.00     0.045 A 
HETATM    5  C4  UNL     1       0.980   2.111  -1.127  1.00  0.00     0.002 C 
HETATM    6  C5  UNL     1      -0.180   2.710  -1.448  1.00  0.00     0.004 C 
HETATM    7  C6  UNL     1       2.182  -0.055  -0.803  1.00  0.00     0.107 A 
HETATM    8  C7  UNL     1       2.110  -1.438  -0.614  1.00  0.00     0.087 A 
HETATM    9  C8  UNL     1       0.883  -2.122  -0.547  1.00  0.00     0.138 A 
HETATM   10  C9  UNL     1      -0.279  -1.353  -0.650  1.00  0.00     0.052 A 
HETATM   11  O2  UNL     1       0.774  -3.468  -0.375  1.00  0.00    -0.190 OA
HETATM   12  C10 UNL     1       3.411  -2.133  -0.449  1.00  0.00     0.198 C 
HETATM   13  C11 UNL     1       4.576  -1.275  -0.075  1.00  0.00     0.042 C 
HETATM   14  C12 UNL     1       4.477   0.065  -0.294  1.00  0.00     0.101 C 
HETATM   15  O3  UNL     1       3.383   0.570  -0.947  1.00  0.00    -0.307 OA
HETATM   16  C13 UNL     1       5.526   1.062   0.044  1.00  0.00     0.045 A 
HETATM   17  C14 UNL     1       6.550   0.883   0.989  1.00  0.00     0.098 A 
HETATM   18  O4  UNL     1       6.716  -0.276   1.684  1.00  0.00    -0.330 OA
HETATM   19  C15 UNL     1       7.019  -1.368   0.870  1.00  0.00     0.154 C 
HETATM   20  C16 UNL     1       5.715  -2.072   0.527  1.00  0.00     0.064 C 
HETATM   21  C20 UNL     1       7.384   1.968   1.300  1.00  0.00     0.052 A 
HETATM   22  C21 UNL     1       7.306   3.211   0.672  1.00  0.00     0.133 A 
HETATM   23  C22 UNL     1       6.322   3.360  -0.306  1.00  0.00     0.028 A 
HETATM   24  C23 UNL     1       5.455   2.313  -0.604  1.00  0.00     0.006 A 
HETATM   25  O6  UNL     1       8.144   4.231   0.992  1.00  0.00    -0.190 OA
HETATM   26  O7  UNL     1       3.502  -3.357  -0.483  1.00  0.00    -0.287 OA
HETATM   27  C24 UNL     1      -2.687   2.716  -1.325  1.00  0.00     0.038 C 
ENDROOT
BRANCH  19  28
HETATM   28  C17 UNL     1       8.055  -2.249   1.589  1.00  0.00     0.152 C 
HETATM   29  C18 UNL     1       9.406  -1.528   1.684  1.00  0.00     0.036 C 
HETATM   30  C19 UNL     1       8.262  -3.609   0.916  1.00  0.00     0.036 C 
HETATM   31  O5  UNL     1       7.607  -2.496   2.897  1.00  0.00    -0.224 OA
ENDBRANCH  19  28
TORSDOF 1
