REMARK  19 active torsions:
REMARK  status: ('A' for Active; 'I' for Inactive)
REMARK    1  A    between atoms: C2_2  and  O9_45 
REMARK    2  A    between atoms: C15_15  and  C19_20 
REMARK    3  A    between atoms: C19_20  and  C20_21 
REMARK    4  A    between atoms: C20_21  and  C21_22 
REMARK    5  A    between atoms: C21_22  and  O2_23 
REMARK    6  A    between atoms: C21_22  and  C28_35 
REMARK    7  A    between atoms: O2_23  and  C22_24 
REMARK    8  A    between atoms: C23_26  and  C27_33 
REMARK    9  A    between atoms: O9_45  and  C37_46 
REMARK   10  A    between atoms: C40_50  and  O16_63 
REMARK   11  A    between atoms: C41_51  and  O11_52 
REMARK   12  A    between atoms: O11_52  and  C42_53 
REMARK   13  A    between atoms: O16_63  and  C48_64 
REMARK   14  A    between atoms: C49_66  and  C58_82 
REMARK   15  A    between atoms: C52_69  and  O18_70 
REMARK   16  A    between atoms: O18_70  and  C53_71 
REMARK   17  A    between atoms: C58_82  and  O25_83 
REMARK   18  A    between atoms: O25_83  and  C59_84 
REMARK   19  A    between atoms: C60_86  and  C64_93 
ROOT
HETATM    1  C37 UNL     1       0.217  -1.068  -1.516  1.00  0.00     0.266 C 
HETATM    2  O10 UNL     1      -1.010  -0.429  -1.764  1.00  0.00    -0.326 OA
HETATM    3  C38 UNL     1      -2.032  -0.982  -0.982  1.00  0.00     0.180 C 
HETATM    4  C39 UNL     1      -1.876  -0.503   0.444  1.00  0.00     0.211 C 
HETATM    5  C40 UNL     1      -0.476  -0.728   1.013  1.00  0.00     0.183 C 
HETATM    6  C41 UNL     1       0.635  -0.961  -0.041  1.00  0.00     0.204 C 
HETATM    7  O31 UNL     1      -2.199   0.870   0.484  1.00  0.00    -0.218 OA
ENDROOT
BRANCH   1   8
HETATM    8  O9  UNL     1       1.169  -0.352  -2.283  1.00  0.00    -0.332 OA
BRANCH   8   9
HETATM    9  C2  UNL     1       1.053  -0.288  -3.680  1.00  0.00     0.118 C 
HETATM   10  C1  UNL     1       1.331   1.161  -4.125  1.00  0.00     0.030 C 
HETATM   11  C6  UNL     1       2.817   1.521  -4.358  1.00  0.00     0.003 C 
HETATM   12  C5  UNL     1       3.812   0.662  -3.542  1.00  0.00     0.000 C 
HETATM   13  C4  UNL     1       3.534  -0.822  -3.983  1.00  0.00     0.002 C 
HETATM   14  C7  UNL     1       5.301   1.071  -3.837  1.00  0.00     0.000 C 
HETATM   15  C34 UNL     1       3.554   0.969  -2.040  1.00  0.00     0.000 C 
HETATM   16  C3  UNL     1       2.068  -1.214  -4.381  1.00  0.00     0.025 C 
HETATM   17  C10 UNL     1       4.566  -1.283  -5.032  1.00  0.00     0.000 C 
HETATM   18  C35 UNL     1       1.790  -1.176  -5.908  1.00  0.00     0.002 C 
HETATM   19  C36 UNL     1       1.795  -2.690  -3.984  1.00  0.00     0.002 C 
HETATM   20  C9  UNL     1       6.043  -1.166  -4.606  1.00  0.00     0.000 C 
HETATM   21  C8  UNL     1       6.335  -0.066  -3.553  1.00  0.00     0.002 C 
HETATM   22  C11 UNL     1       7.809   0.445  -3.590  1.00  0.00     0.030 C 
HETATM   23  C33 UNL     1       6.161  -0.742  -2.167  1.00  0.00     0.000 C 
HETATM   24  C12 UNL     1       8.043   1.823  -2.906  1.00  0.00     0.007 C 
HETATM   25  C17 UNL     1       8.863  -0.469  -2.929  1.00  0.00     0.032 C 
HETATM   26  C18 UNL     1       8.578   0.565  -4.919  1.00  0.00     0.142 C 
HETATM   27  C13 UNL     1       6.822   2.482  -2.274  1.00  0.00     0.000 C 
HETATM   28  C15 UNL     1       9.464   1.743  -2.284  1.00  0.00     0.056 C 
HETATM   29  C14 UNL     1       5.692   2.482  -3.318  1.00  0.00     0.000 C 
HETATM   30  C16 UNL     1       9.973   0.553  -3.137  1.00  0.00     0.118 C 
HETATM   31  O1  UNL     1       9.903   0.857  -4.511  1.00  0.00    -0.357 OA
BRANCH  28  32
HETATM   32  C19 UNL     1       9.746   1.622  -0.755  1.00  0.00     0.132 C 
HETATM   33  C32 UNL     1       8.520   1.678   0.164  1.00  0.00     0.033 C 
HETATM   34  O8  UNL     1      10.346   0.387  -0.443  1.00  0.00    -0.226 OA
BRANCH  32  35
HETATM   35  C20 UNL     1      10.713   2.722  -0.245  1.00  0.00     0.065 C 
BRANCH  35  36
HETATM   36  C21 UNL     1      12.171   2.749  -0.739  1.00  0.00     0.142 C 
BRANCH  36  37
HETATM   37  O2  UNL     1      12.758   1.491  -0.494  1.00  0.00    -0.327 OA
BRANCH  37  38
HETATM   38  C22 UNL     1      14.131   1.402  -0.812  1.00  0.00     0.270 C 
HETATM   39  O3  UNL     1      14.184   0.568  -1.950  1.00  0.00    -0.326 OA
HETATM   40  C23 UNL     1      15.495   0.337  -2.396  1.00  0.00     0.184 C 
HETATM   41  C24 UNL     1      16.317  -0.322  -1.291  1.00  0.00     0.215 C 
HETATM   42  C25 UNL     1      16.285   0.522  -0.034  1.00  0.00     0.220 C 
HETATM   43  O6  UNL     1      17.661  -0.465  -1.677  1.00  0.00    -0.218 OA
HETATM   44  C26 UNL     1      14.839   0.738   0.345  1.00  0.00     0.241 C 
HETATM   45  O5  UNL     1      16.953  -0.149   1.004  1.00  0.00    -0.218 OA
HETATM   46  O4  UNL     1      14.773   1.569   1.476  1.00  0.00    -0.215 OA
BRANCH  40  47
HETATM   47  C27 UNL     1      15.425  -0.548  -3.633  1.00  0.00     0.214 C 
HETATM   48  O7  UNL     1      14.750   0.132  -4.672  1.00  0.00    -0.218 OA
ENDBRANCH  40  47
ENDBRANCH  37  38
ENDBRANCH  36  37
BRANCH  36  49
HETATM   49  C28 UNL     1      12.289   3.212  -2.172  1.00  0.00    -0.005 C 
HETATM   50  C29 UNL     1      12.132   4.478  -2.601  1.00  0.00    -0.045 C 
HETATM   51  C30 UNL     1      12.200   4.815  -4.071  1.00  0.00     0.026 C 
HETATM   52  C31 UNL     1      11.842   5.659  -1.704  1.00  0.00     0.026 C 
ENDBRANCH  36  49
ENDBRANCH  35  36
ENDBRANCH  32  35
ENDBRANCH  28  32
ENDBRANCH   8   9
ENDBRANCH   1   8
BRANCH   6  53
HETATM   53  O11 UNL     1       1.294  -2.132   0.387  1.00  0.00    -0.324 OA
BRANCH  53  54
HETATM   54  C42 UNL     1       2.634  -2.341  -0.025  1.00  0.00     0.270 C 
HETATM   55  O12 UNL     1       2.639  -3.716  -0.384  1.00  0.00    -0.329 OA
HETATM   56  C43 UNL     1       3.626  -4.499   0.222  1.00  0.00     0.151 C 
HETATM   57  C44 UNL     1       4.965  -3.789   0.113  1.00  0.00     0.212 C 
HETATM   58  C47 UNL     1       3.625  -5.864  -0.468  1.00  0.00     0.035 C 
HETATM   59  C45 UNL     1       4.947  -2.643   1.096  1.00  0.00     0.220 C 
HETATM   60  O15 UNL     1       6.038  -4.636   0.441  1.00  0.00    -0.218 OA
HETATM   61  C46 UNL     1       3.603  -1.941   1.079  1.00  0.00     0.241 C 
HETATM   62  O14 UNL     1       5.976  -1.737   0.785  1.00  0.00    -0.218 OA
HETATM   63  O13 UNL     1       3.871  -0.558   1.002  1.00  0.00    -0.215 OA
ENDBRANCH  53  54
ENDBRANCH   6  53
BRANCH   5  64
HETATM   64  O16 UNL     1      -0.232   0.348   1.889  1.00  0.00    -0.326 OA
BRANCH  64  65
HETATM   65  C48 UNL     1       1.005   0.389   2.564  1.00  0.00     0.267 C 
HETATM   66  O17 UNL     1       0.839  -0.231   3.824  1.00  0.00    -0.326 OA
HETATM   67  C49 UNL     1       2.033  -0.232   4.573  1.00  0.00     0.180 C 
HETATM   68  C50 UNL     1       2.464   1.206   4.846  1.00  0.00     0.214 C 
HETATM   69  C51 UNL     1       2.687   1.914   3.529  1.00  0.00     0.217 C 
HETATM   70  O24 UNL     1       3.682   1.254   5.549  1.00  0.00    -0.218 OA
HETATM   71  C52 UNL     1       1.409   1.847   2.714  1.00  0.00     0.207 C 
HETATM   72  O23 UNL     1       3.039   3.257   3.758  1.00  0.00    -0.218 OA
BRANCH  67  73
HETATM   73  C58 UNL     1       1.846  -1.021   5.866  1.00  0.00     0.177 C 
BRANCH  73  74
HETATM   74  O25 UNL     1       1.934  -2.403   5.609  1.00  0.00    -0.326 OA
BRANCH  74  75
HETATM   75  C59 UNL     1       2.157  -3.162   6.781  1.00  0.00     0.270 C 
HETATM   76  O26 UNL     1       3.549  -3.093   7.022  1.00  0.00    -0.326 OA
HETATM   77  C60 UNL     1       3.938  -3.777   8.186  1.00  0.00     0.184 C 
HETATM   78  C61 UNL     1       3.572  -5.254   8.060  1.00  0.00     0.215 C 
HETATM   79  C62 UNL     1       2.096  -5.409   7.753  1.00  0.00     0.220 C 
HETATM   80  O29 UNL     1       3.829  -5.962   9.248  1.00  0.00    -0.218 OA
HETATM   81  C63 UNL     1       1.768  -4.597   6.519  1.00  0.00     0.241 C 
HETATM   82  O28 UNL     1       1.804  -6.763   7.526  1.00  0.00    -0.218 OA
HETATM   83  O27 UNL     1       0.388  -4.676   6.270  1.00  0.00    -0.215 OA
BRANCH  77  84
HETATM   84  C64 UNL     1       5.433  -3.550   8.373  1.00  0.00     0.214 C 
HETATM   85  O30 UNL     1       5.822  -3.842   9.700  1.00  0.00    -0.218 OA
ENDBRANCH  77  84
ENDBRANCH  74  75
ENDBRANCH  73  74
ENDBRANCH  67  73
BRANCH  71  86
HETATM   86  O18 UNL     1       1.712   2.440   1.480  1.00  0.00    -0.324 OA
BRANCH  86  87
HETATM   87  C53 UNL     1       0.657   3.143   0.857  1.00  0.00     0.270 C 
HETATM   88  O19 UNL     1       0.424   2.458  -0.356  1.00  0.00    -0.326 OA
HETATM   89  C54 UNL     1      -0.548   3.105  -1.143  1.00  0.00     0.181 C 
HETATM   90  C55 UNL     1      -0.067   4.492  -1.530  1.00  0.00     0.215 C 
HETATM   91  C56 UNL     1       0.162   5.301  -0.271  1.00  0.00     0.220 C 
HETATM   92  O22 UNL     1      -1.029   5.155  -2.312  1.00  0.00    -0.218 OA
HETATM   93  C57 UNL     1       1.147   4.551   0.600  1.00  0.00     0.241 C 
HETATM   94  O21 UNL     1       0.685   6.560  -0.609  1.00  0.00    -0.218 OA
HETATM   95  O20 UNL     1       1.281   5.221   1.829  1.00  0.00    -0.215 OA
ENDBRANCH  86  87
ENDBRANCH  71  86
ENDBRANCH  64  65
ENDBRANCH   5  64
TORSDOF 19
