REMARK  0 active torsions:
REMARK  status: ('A' for Active; 'I' for Inactive)
ROOT
HETATM    1  C1  UNL     1      -0.304  -1.937   0.079  1.00  0.00     0.182 A 
HETATM    2  C2  UNL     1      -0.730  -0.908   1.142  1.00  0.00     0.186 C 
HETATM    3  C3  UNL     1      -1.535   0.403   0.904  1.00  0.00     0.056 C 
HETATM    4  C4  UNL     1      -0.973   1.476  -0.092  1.00  0.00     0.063 C 
HETATM    5  C5  UNL     1      -1.403   1.280  -1.584  1.00  0.00     0.155 C 
HETATM    6  C6  UNL     1      -1.705  -0.108  -2.152  1.00  0.00     0.037 C 
HETATM    7  C7  UNL     1      -0.684  -0.830  -3.046  1.00  0.00     0.024 C 
HETATM    8  C8  UNL     1       0.791  -0.656  -2.791  1.00  0.00    -0.046 C 
HETATM    9  C9  UNL     1       1.490  -1.138  -1.749  1.00  0.00    -0.002 C 
HETATM   10  C10 UNL     1       1.095  -1.942  -0.534  1.00  0.00     0.176 A 
HETATM   11  O1  UNL     1       1.480  -3.298  -0.729  1.00  0.00    -0.295 OA
HETATM   12  C11 UNL     1       0.584  -4.163  -0.187  1.00  0.00     0.299 A 
HETATM   13  C12 UNL     1      -0.526  -3.386   0.351  1.00  0.00     0.197 A 
HETATM   14  C13 UNL     1      -1.323  -3.962   1.506  1.00  0.00     0.043 C 
HETATM   15  O2  UNL     1      -1.331  -2.683  -0.600  1.00  0.00    -0.344 OA
HETATM   16  O3  UNL     1       0.708  -5.367  -0.146  1.00  0.00    -0.262 OA
HETATM   17  C14 UNL     1       1.542   0.024  -3.924  1.00  0.00     0.026 C 
HETATM   18  O4  UNL     1      -0.539   1.975  -2.451  1.00  0.00    -0.223 OA
HETATM   19  C15 UNL     1      -1.509   2.879   0.314  1.00  0.00     0.159 C 
HETATM   20  C16 UNL     1      -1.098   3.300   1.719  1.00  0.00     0.058 C 
HETATM   21  C17 UNL     1      -1.589   2.247   2.662  1.00  0.00    -0.032 C 
HETATM   22  C18 UNL     1      -1.853   0.981   2.298  1.00  0.00    -0.046 C 
HETATM   23  C19 UNL     1      -2.532   0.080   3.313  1.00  0.00     0.026 C 
HETATM   24  O5  UNL     1      -2.922   2.909   0.278  1.00  0.00    -0.223 OA
HETATM   25  C20 UNL     1       0.564   1.577   0.021  1.00  0.00     0.005 C 
HETATM   26  O6  UNL     1       0.367  -0.634   1.999  1.00  0.00    -0.220 OA
ENDROOT
TORSDOF 0
