REMARK  7 active torsions:
REMARK  status: ('A' for Active; 'I' for Inactive)
REMARK    1  A    between atoms: C6_6  and  O1_7 
REMARK    2  A    between atoms: O1_7  and  C7_8 
REMARK    3  A    between atoms: C9_11  and  O10_33 
REMARK    4  A    between atoms: C12_14  and  C22_30 
REMARK    5  A    between atoms: C16_18  and  O3_19 
REMARK    6  A    between atoms: O3_19  and  C17_20 
REMARK    7  A    between atoms: O10_33  and  C23_34 
ROOT
HETATM    1  C1  UNL     1      -2.222   1.469   1.348  1.00  0.00     0.033 C 
HETATM    2  C2  UNL     1      -2.496   0.122   0.671  1.00  0.00     0.032 C 
HETATM    3  C3  UNL     1      -1.337  -0.824   0.935  1.00  0.00     0.123 A 
HETATM    4  C4  UNL     1       0.057  -0.324   0.504  1.00  0.00     0.062 C 
HETATM    5  C5  UNL     1       0.366   1.075   1.170  1.00  0.00     0.058 C 
HETATM    6  C6  UNL     1      -0.858   2.034   0.927  1.00  0.00     0.127 C 
HETATM    7  C9  UNL     1       1.653   1.811   0.614  1.00  0.00     0.156 C 
HETATM    8  C10 UNL     1       2.358   1.143  -0.574  1.00  0.00     0.173 A 
HETATM    9  C11 UNL     1       1.638   1.002  -1.762  1.00  0.00     0.173 A 
HETATM   10  C12 UNL     1       1.869  -0.263  -2.607  1.00  0.00     0.167 C 
HETATM   11  C13 UNL     1       3.252  -0.928  -2.560  1.00  0.00     0.140 C 
HETATM   12  C14 UNL     1       3.109  -1.934  -1.403  1.00  0.00     0.169 A 
HETATM   13  C15 UNL     1       1.618  -1.942  -1.029  1.00  0.00     0.154 A 
HETATM   14  C16 UNL     1       1.201  -1.395   0.394  1.00  0.00     0.154 C 
HETATM   15  C19 UNL     1       1.251  -3.439  -1.181  1.00  0.00     0.116 A 
HETATM   16  C20 UNL     1       2.504  -4.131  -1.670  1.00  0.00     0.274 A 
HETATM   17  O5  UNL     1       3.507  -3.232  -1.742  1.00  0.00    -0.300 OA
HETATM   18  O6  UNL     1       2.609  -5.307  -1.940  1.00  0.00    -0.264 OA
HETATM   19  C21 UNL     1       0.059  -3.762  -2.095  1.00  0.00     0.013 C 
HETATM   20  O7  UNL     1       1.020  -1.262  -2.094  1.00  0.00    -0.352 OA
HETATM   21 CL1  UNL     1       3.775  -1.657  -4.112  1.00  0.00    -0.110 Cl
HETATM   22  O9  UNL     1       2.748   2.063  -1.748  1.00  0.00    -0.349 OA
HETATM   23  C25 UNL     1       0.427   0.862   2.711  1.00  0.00     0.005 C 
HETATM   24  O12 UNL     1      -1.647  -2.338   0.539  1.00  0.00    -0.354 OA
HETATM   25  C26 UNL     1      -1.556  -1.889   1.871  1.00  0.00     0.169 A 
ENDROOT
BRANCH   6  26
HETATM   26  O1  UNL     1      -0.927   2.398  -0.423  1.00  0.00    -0.304 OA
BRANCH  26  27
HETATM   27  C7  UNL     1      -1.514   3.578  -0.761  1.00  0.00     0.272 C 
HETATM   28  C8  UNL     1      -1.388   3.808  -2.253  1.00  0.00     0.106 C 
HETATM   29  O2  UNL     1      -2.044   4.343   0.013  1.00  0.00    -0.264 OA
ENDBRANCH  26  27
ENDBRANCH   6  26
BRANCH   7  30
HETATM   30  O10 UNL     1       2.648   1.962   1.610  1.00  0.00    -0.302 OA
BRANCH  30  31
HETATM   31  C23 UNL     1       2.644   3.072   2.396  1.00  0.00     0.272 C 
HETATM   32  C24 UNL     1       3.787   3.004   3.389  1.00  0.00     0.106 C 
HETATM   33  O11 UNL     1       1.837   3.971   2.328  1.00  0.00    -0.264 OA
ENDBRANCH  30  31
ENDBRANCH   7  30
BRANCH  14  34
HETATM   34  O3  UNL     1       2.308  -0.973   1.134  1.00  0.00    -0.302 OA
BRANCH  34  35
HETATM   35  C17 UNL     1       2.941  -1.650   2.136  1.00  0.00     0.272 C 
HETATM   36  O4  UNL     1       3.891  -1.165   2.716  1.00  0.00    -0.264 OA
HETATM   37  C18 UNL     1       2.431  -3.031   2.496  1.00  0.00     0.106 C 
ENDBRANCH  34  35
ENDBRANCH  14  34
BRANCH  10  38
HETATM   38  C22 UNL     1       1.355   0.039  -4.023  1.00  0.00     0.213 C 
HETATM   39  O8  UNL     1       2.255   0.905  -4.684  1.00  0.00    -0.218 OA
ENDBRANCH  10  38
TORSDOF 7
