REMARK  8 active torsions:
REMARK  status: ('A' for Active; 'I' for Inactive)
REMARK    1  A    between atoms: C2_2  and  O10_37 
REMARK    2  A    between atoms: C5_5  and  O6_23 
REMARK    3  A    between atoms: C6_6  and  O4_19 
REMARK    4  A    between atoms: O4_19  and  C15_20 
REMARK    5  A    between atoms: O6_23  and  C17_24 
REMARK    6  A    between atoms: C19_27  and  O8_32 
REMARK    7  A    between atoms: O8_32  and  C24_33 
REMARK    8  A    between atoms: O10_37  and  C27_38 
ROOT
HETATM    1  C1  UNL     1       1.874  -2.144   0.370  1.00  0.00     0.163 C 
HETATM    2  C2  UNL     1       1.435  -0.715   0.817  1.00  0.00     0.171 C 
HETATM    3  C3  UNL     1       2.406   0.486   1.069  1.00  0.00    -0.014 C 
HETATM    4  C4  UNL     1       3.698   0.899   0.277  1.00  0.00     0.071 C 
HETATM    5  C5  UNL     1       3.741   0.779  -1.282  1.00  0.00     0.164 C 
HETATM    6  C6  UNL     1       2.912  -0.255  -2.058  1.00  0.00     0.196 C 
HETATM    7  C7  UNL     1       3.002  -1.749  -1.711  1.00  0.00     0.099 C 
HETATM    8  C8  UNL     1       4.297  -2.349  -1.218  1.00  0.00     0.016 C 
HETATM    9  C9  UNL     1       4.203  -3.227   0.007  1.00  0.00     0.134 C 
HETATM   10  C10 UNL     1       3.164  -2.670   0.983  1.00  0.00     0.172 C 
HETATM   11  O1  UNL     1       2.857  -3.601   1.980  1.00  0.00    -0.300 OA
HETATM   12  C11 UNL     1       1.550  -3.949   1.969  1.00  0.00     0.274 C 
HETATM   13  C12 UNL     1       0.860  -3.238   0.825  1.00  0.00     0.117 C 
HETATM   14  C13 UNL     1       0.353  -4.250  -0.220  1.00  0.00     0.013 C 
HETATM   15  O2  UNL     1       1.032  -4.720   2.747  1.00  0.00    -0.264 OA
HETATM   16 CL1  UNL     1       3.876  -4.891  -0.570  1.00  0.00    -0.108 Cl
HETATM   17  C14 UNL     1       5.445  -2.239  -1.906  1.00  0.00    -0.002 C 
HETATM   18  O3  UNL     1       1.885  -2.246  -1.019  1.00  0.00    -0.332 OA
HETATM   19  C19 UNL     1       3.905   2.439   0.582  1.00  0.00     0.130 C 
HETATM   20  C20 UNL     1       4.056   2.774   2.071  1.00  0.00     0.035 C 
HETATM   21  C21 UNL     1       2.865   2.248   2.878  1.00  0.00     0.028 C 
HETATM   22  C22 UNL     1       2.667   0.785   2.552  1.00  0.00    -0.028 C 
HETATM   23  C23 UNL     1       2.766  -0.133   3.529  1.00  0.00    -0.005 C 
HETATM   24  C26 UNL     1       4.965   0.210   0.868  1.00  0.00     0.009 C 
ENDROOT
BRANCH   2  25
HETATM   25  O10 UNL     1       0.598  -0.767   1.953  1.00  0.00    -0.297 OA
BRANCH  25  26
HETATM   26  C27 UNL     1      -0.726  -0.452   1.863  1.00  0.00     0.273 C 
HETATM   27  C28 UNL     1      -1.388  -0.633   3.215  1.00  0.00     0.106 C 
HETATM   28  O11 UNL     1      -1.297  -0.089   0.860  1.00  0.00    -0.264 OA
ENDBRANCH  25  26
ENDBRANCH   2  25
BRANCH   5  29
HETATM   29  O6  UNL     1       5.084   0.729  -1.696  1.00  0.00    -0.301 OA
BRANCH  29  30
HETATM   30  C17 UNL     1       5.507   1.417  -2.792  1.00  0.00     0.272 C 
HETATM   31  C18 UNL     1       6.996   1.212  -2.990  1.00  0.00     0.106 C 
HETATM   32  O7  UNL     1       4.807   2.101  -3.502  1.00  0.00    -0.264 OA
ENDBRANCH  29  30
ENDBRANCH   5  29
BRANCH  19  33
HETATM   33  O8  UNL     1       2.829   3.190   0.075  1.00  0.00    -0.304 OA
BRANCH  33  34
HETATM   34  C24 UNL     1       3.070   4.429  -0.431  1.00  0.00     0.272 C 
HETATM   35  C25 UNL     1       1.808   4.980  -1.064  1.00  0.00     0.106 C 
HETATM   36  O9  UNL     1       4.137   4.999  -0.404  1.00  0.00    -0.264 OA
ENDBRANCH  33  34
ENDBRANCH  19  33
BRANCH   6  37
HETATM   37  O4  UNL     1       1.567   0.142  -2.085  1.00  0.00    -0.295 OA
BRANCH  37  38
HETATM   38  C15 UNL     1       1.136   1.112  -2.933  1.00  0.00     0.273 C 
HETATM   39  C16 UNL     1      -0.293   1.487  -2.595  1.00  0.00     0.106 C 
HETATM   40  O5  UNL     1       1.804   1.641  -3.792  1.00  0.00    -0.264 OA
ENDBRANCH  37  38
ENDBRANCH   6  37
TORSDOF 8
