REMARK  4 active torsions:
REMARK  status: ('A' for Active; 'I' for Inactive)
REMARK    1  A    between atoms: C2_2  and  O7_29 
REMARK    2  A    between atoms: C5_5  and  O3_17 
REMARK    3  A    between atoms: O3_17  and  C15_18 
REMARK    4  A    between atoms: O7_29  and  C23_30 
ROOT
HETATM    1  C1  UNL     1       0.078  -1.590   1.207  1.00  0.00     0.200 C 
HETATM    2  C2  UNL     1      -0.117  -0.072   1.463  1.00  0.00     0.161 C 
HETATM    3  C3  UNL     1      -0.677   0.895   0.361  1.00  0.00     0.064 C 
HETATM    4  C4  UNL     1       0.214   1.178  -0.923  1.00  0.00     0.059 C 
HETATM    5  C5  UNL     1       0.155  -0.087  -1.819  1.00  0.00     0.127 C 
HETATM    6  C6  UNL     1       1.264  -0.530  -2.779  1.00  0.00     0.035 C 
HETATM    7  C7  UNL     1       1.987  -1.802  -2.267  1.00  0.00     0.025 C 
HETATM    8  C8  UNL     1       2.908  -1.509  -1.110  1.00  0.00    -0.042 C 
HETATM    9  C9  UNL     1       2.662  -1.657   0.207  1.00  0.00     0.014 C 
HETATM   10  C10 UNL     1       1.502  -2.149   1.056  1.00  0.00     0.110 C 
HETATM   11  O1  UNL     1       1.371  -3.545   1.133  1.00  0.00    -0.278 OA
HETATM   12  C11 UNL     1       0.333  -3.831   1.972  1.00  0.00     0.278 C 
HETATM   13  C12 UNL     1      -0.318  -2.514   2.396  1.00  0.00     0.123 C 
HETATM   14  C13 UNL     1      -1.815  -2.662   2.712  1.00  0.00     0.013 C 
HETATM   15  O2  UNL     1      -0.004  -4.947   2.302  1.00  0.00    -0.264 OA
HETATM   16  C14 UNL     1       4.251  -0.960  -1.564  1.00  0.00     0.026 C 
HETATM   17  C17 UNL     1      -0.299   2.413  -1.701  1.00  0.00     0.155 C 
HETATM   18  C18 UNL     1      -1.794   2.652  -1.564  1.00  0.00     0.036 C 
HETATM   19  C19 UNL     1      -2.149   2.951  -0.103  1.00  0.00     0.033 C 
HETATM   20  C20 UNL     1      -1.295   2.201   0.939  1.00  0.00     0.129 C 
HETATM   21  C21 UNL     1      -2.181   2.017   2.183  1.00  0.00     0.033 C 
HETATM   22  O5  UNL     1      -0.250   3.049   1.339  1.00  0.00    -0.226 OA
HETATM   23  O6  UNL     1       0.040   2.317  -3.064  1.00  0.00    -0.223 OA
HETATM   24  C22 UNL     1       1.679   1.525  -0.563  1.00  0.00     0.005 C 
HETATM   25  O9  UNL     1      -0.791  -2.056   0.204  1.00  0.00    -0.216 OA
ENDROOT
BRANCH   2  26
HETATM   26  O7  UNL     1       1.025   0.506   2.026  1.00  0.00    -0.301 OA
BRANCH  26  27
HETATM   27  C23 UNL     1       1.181   0.563   3.375  1.00  0.00     0.272 C 
HETATM   28  C24 UNL     1       2.535   1.156   3.709  1.00  0.00     0.106 C 
HETATM   29  O8  UNL     1       0.371   0.190   4.192  1.00  0.00    -0.264 OA
ENDBRANCH  26  27
ENDBRANCH   2  26
BRANCH   5  30
HETATM   30  O3  UNL     1      -1.114  -0.246  -2.390  1.00  0.00    -0.304 OA
BRANCH  30  31
HETATM   31  C15 UNL     1      -1.613  -1.497  -2.572  1.00  0.00     0.272 C 
HETATM   32  C16 UNL     1      -3.016  -1.416  -3.137  1.00  0.00     0.106 C 
HETATM   33  O4  UNL     1      -1.041  -2.527  -2.300  1.00  0.00    -0.264 OA
ENDBRANCH  30  31
ENDBRANCH   5  30
TORSDOF 4
