REMARK  7 active torsions:
REMARK  status: ('A' for Active; 'I' for Inactive)
REMARK    1  A    between atoms: C2_2  and  O11_35 
REMARK    2  A    between atoms: C5_5  and  O4_18 
REMARK    3  A    between atoms: C8_8  and  C14_16 
REMARK    4  A    between atoms: O4_18  and  C15_19 
REMARK    5  A    between atoms: C18_23  and  O8_29 
REMARK    6  A    between atoms: O8_29  and  C22_30 
REMARK    7  A    between atoms: O11_35  and  C25_36 
ROOT
HETATM    1  C1  UNL     1       0.508  -0.325   2.425  1.00  0.00     0.190 C 
HETATM    2  C2  UNL     1      -0.556   0.324   1.464  1.00  0.00     0.158 C 
HETATM    3  C3  UNL     1      -0.402   0.756  -0.065  1.00  0.00     0.066 C 
HETATM    4  C4  UNL     1      -0.322  -0.110  -1.391  1.00  0.00     0.065 C 
HETATM    5  C5  UNL     1      -0.145  -1.616  -1.094  1.00  0.00     0.149 C 
HETATM    6  C6  UNL     1       1.229  -1.936  -0.522  1.00  0.00     0.003 C 
HETATM    7  C7  UNL     1       2.019  -0.988   0.004  1.00  0.00    -0.004 C 
HETATM    8  C8  UNL     1       3.191  -1.195   0.864  1.00  0.00     0.009 C 
HETATM    9  C9  UNL     1       3.117  -0.535   2.036  1.00  0.00     0.004 C 
HETATM   10  C10 UNL     1       1.920   0.290   2.531  1.00  0.00     0.177 C 
HETATM   11  O1  UNL     1       2.180   0.560   3.894  1.00  0.00    -0.297 OA
HETATM   12  C11 UNL     1       1.231   0.092   4.728  1.00  0.00     0.274 C 
HETATM   13  C12 UNL     1       0.027  -0.300   3.909  1.00  0.00     0.119 C 
HETATM   14  C13 UNL     1      -0.673  -1.552   4.464  1.00  0.00     0.013 C 
HETATM   15  O2  UNL     1       1.322   0.061   5.936  1.00  0.00    -0.264 OA
HETATM   16  C17 UNL     1      -1.609   0.233  -2.222  1.00  0.00     0.185 C 
HETATM   17  C18 UNL     1      -1.784   1.737  -2.522  1.00  0.00     0.187 C 
HETATM   18  C19 UNL     1      -1.501   2.702  -1.354  1.00  0.00     0.209 C 
HETATM   19  C20 UNL     1      -0.325   2.224  -0.496  1.00  0.00     0.153 A 
HETATM   20  O6  UNL     1       0.249   3.288   0.548  1.00  0.00    -0.351 OA
HETATM   21  C21 UNL     1       0.950   2.874  -0.596  1.00  0.00     0.172 A 
HETATM   22  O7  UNL     1      -2.671   2.805  -0.556  1.00  0.00    -0.218 OA
HETATM   23  O10 UNL     1      -2.774  -0.259  -1.594  1.00  0.00    -0.221 OA
HETATM   24  C24 UNL     1       0.814   0.281  -2.401  1.00  0.00     0.006 C 
HETATM   25  O13 UNL     1       0.580  -1.698   2.120  1.00  0.00    -0.220 OA
ENDROOT
BRANCH   2  26
HETATM   26  O11 UNL     1      -1.066   1.484   2.084  1.00  0.00    -0.302 OA
BRANCH  26  27
HETATM   27  C25 UNL     1      -2.392   1.809   2.090  1.00  0.00     0.272 C 
HETATM   28  O12 UNL     1      -2.763   2.964   2.111  1.00  0.00    -0.264 OA
HETATM   29  C26 UNL     1      -3.371   0.653   2.177  1.00  0.00     0.106 C 
ENDBRANCH  26  27
ENDBRANCH   2  26
BRANCH   5  30
HETATM   30  O4  UNL     1      -0.382  -2.367  -2.262  1.00  0.00    -0.300 OA
BRANCH  30  31
HETATM   31  C15 UNL     1      -0.720  -3.677  -2.118  1.00  0.00     0.273 C 
HETATM   32  C16 UNL     1      -1.017  -4.289  -3.472  1.00  0.00     0.106 C 
HETATM   33  O5  UNL     1      -0.790  -4.271  -1.066  1.00  0.00    -0.264 OA
ENDBRANCH  30  31
ENDBRANCH   5  30
BRANCH   8  34
HETATM   34  C14 UNL     1       4.349  -2.050   0.433  1.00  0.00     0.209 C 
HETATM   35  O3  UNL     1       4.834  -1.603  -0.827  1.00  0.00    -0.215 OA
ENDBRANCH   8  34
BRANCH  17  36
HETATM   36  O8  UNL     1      -3.073   1.910  -3.047  1.00  0.00    -0.299 OA
BRANCH  36  37
HETATM   37  C22 UNL     1      -3.343   3.058  -3.726  1.00  0.00     0.273 C 
HETATM   38  C23 UNL     1      -4.798   3.090  -4.145  1.00  0.00     0.106 C 
HETATM   39  O9  UNL     1      -2.537   3.927  -3.968  1.00  0.00    -0.264 OA
ENDBRANCH  36  37
ENDBRANCH  17  36
TORSDOF 7
