REMARK  7 active torsions:
REMARK  status: ('A' for Active; 'I' for Inactive)
REMARK    1  A    between atoms: C2_2  and  O3_23 
REMARK    2  A    between atoms: C3_3  and  C19_19 
REMARK    3  A    between atoms: C7_7  and  C12_12 
REMARK    4  A    between atoms: C12_12  and  C13_13 
REMARK    5  A    between atoms: C13_13  and  C14_14 
REMARK    6  A    between atoms: C14_14  and  C15_15 
REMARK    7  A    between atoms: O3_23  and  C21_24 
ROOT
HETATM    1  C1  UNL     1       1.879   0.139   1.655  1.00  0.00     0.031 C 
HETATM    2  C2  UNL     1       2.290  -1.332   1.676  1.00  0.00     0.134 C 
HETATM    3  C3  UNL     1       3.144  -1.774   0.459  1.00  0.00     0.104 C 
HETATM    4  C4  UNL     1       4.316  -0.762   0.199  1.00  0.00     0.013 C 
HETATM    5  C5  UNL     1       4.015   0.767   0.258  1.00  0.00     0.004 C 
HETATM    6  C6  UNL     1       3.084   1.060   1.462  1.00  0.00     0.003 C 
HETATM    7  C7  UNL     1       3.555   1.369  -1.109  1.00  0.00     0.019 C 
HETATM    8  C8  UNL     1       4.403   0.886  -2.280  1.00  0.00    -0.044 C 
HETATM    9  C9  UNL     1       5.504  -0.120  -2.049  1.00  0.00     0.022 C 
HETATM   10  C10 UNL     1       5.191  -1.192  -1.002  1.00  0.00     0.005 C 
HETATM   11  C11 UNL     1       4.274   1.442  -3.498  1.00  0.00    -0.009 C 
HETATM   12  C18 UNL     1       5.316   1.543   0.659  1.00  0.00     0.000 C 
HETATM   13  C20 UNL     1       2.300  -2.022  -0.818  1.00  0.00     0.013 C 
ENDROOT
BRANCH   7  14
HETATM   14  C12 UNL     1       2.050   1.292  -1.464  1.00  0.00     0.009 C 
BRANCH  14  15
HETATM   15  C13 UNL     1       1.219   2.534  -1.099  1.00  0.00     0.027 C 
BRANCH  15  16
HETATM   16  C14 UNL     1      -0.293   2.414  -1.204  1.00  0.00    -0.022 C 
HETATM   17  C17 UNL     1      -0.891   1.367  -1.813  1.00  0.00    -0.005 C 
BRANCH  16  18
HETATM   18  C15 UNL     1      -1.084   3.514  -0.626  1.00  0.00    -0.004 C 
HETATM   19  C16 UNL     1      -2.417   3.535  -0.434  1.00  0.00    -0.000 C 
ENDBRANCH  16  18
ENDBRANCH  15  16
ENDBRANCH  14  15
ENDBRANCH   7  14
BRANCH   3  20
HETATM   20  C19 UNL     1       3.780  -3.129   0.855  1.00  0.00     0.186 C 
HETATM   21  O1  UNL     1       2.889  -4.133   0.971  1.00  0.00    -0.647 OA
HETATM   22  O2  UNL     1       4.949  -3.349   1.071  1.00  0.00    -0.647 OA
ENDBRANCH   3  20
BRANCH   2  23
HETATM   23  O3  UNL     1       1.130  -2.112   1.767  1.00  0.00    -0.304 OA
BRANCH  23  24
HETATM   24  C21 UNL     1       0.512  -2.233   2.972  1.00  0.00     0.272 C 
HETATM   25  C22 UNL     1      -0.778  -3.012   2.812  1.00  0.00     0.106 C 
HETATM   26  O4  UNL     1       0.912  -1.768   4.015  1.00  0.00    -0.264 OA
ENDBRANCH  23  24
ENDBRANCH   2  23
TORSDOF 7
