REMARK  1 active torsions:
REMARK  status: ('A' for Active; 'I' for Inactive)
REMARK    1  A    between atoms: C10_10  and  C11_11 
ROOT
HETATM    1  C1  UNL     1      -2.213   2.898   0.019  1.00  0.00     0.026 A 
HETATM    2  C2  UNL     1      -2.171   1.506   0.252  1.00  0.00     0.119 A 
HETATM    3  C3  UNL     1      -0.988   0.808   0.304  1.00  0.00     0.119 A 
HETATM    4  C4  UNL     1       0.273   1.436   0.091  1.00  0.00     0.024 A 
HETATM    5  C5  UNL     1       0.235   2.842  -0.107  1.00  0.00     0.002 A 
HETATM    6  C6  UNL     1      -1.011   3.548  -0.148  1.00  0.00     0.002 A 
HETATM    7  C7  UNL     1       1.452   3.575  -0.271  1.00  0.00     0.005 A 
HETATM    8  C8  UNL     1       2.612   2.844  -0.222  1.00  0.00     0.064 A 
HETATM    9  C9  UNL     1       2.669   1.448  -0.038  1.00  0.00     0.042 A 
HETATM   10  C10 UNL     1       1.517   0.714   0.095  1.00  0.00     0.003 A 
HETATM   11  C18 UNL     1       4.112   1.024  -0.105  1.00  0.00     0.299 A 
HETATM   12  O3  UNL     1       4.887   2.213  -0.295  1.00  0.00    -0.266 OA
HETATM   13  C19 UNL     1       4.012   3.266  -0.370  1.00  0.00     0.298 A 
HETATM   14  O4  UNL     1       4.367   4.428  -0.541  1.00  0.00    -0.259 OA
HETATM   15  O5  UNL     1       4.402   0.304  -1.297  1.00  0.00    -0.184 OA
HETATM   16  O6  UNL     1      -1.273  -0.520   0.577  1.00  0.00    -0.300 OA
HETATM   17  C20 UNL     1      -2.694  -0.666   0.645  1.00  0.00     0.304 A 
HETATM   18  O7  UNL     1      -3.231   0.647   0.466  1.00  0.00    -0.300 OA
ENDROOT
BRANCH  10  19
HETATM   19  C11 UNL     1       1.588  -0.773   0.185  1.00  0.00     0.002 A 
HETATM   20  C12 UNL     1       2.269  -1.387   1.248  1.00  0.00     0.002 A 
HETATM   21  C13 UNL     1       2.303  -2.779   1.389  1.00  0.00     0.026 A 
HETATM   22  C14 UNL     1       1.620  -3.533   0.439  1.00  0.00     0.119 A 
HETATM   23  C15 UNL     1       0.955  -2.932  -0.625  1.00  0.00     0.119 A 
HETATM   24  O2  UNL     1       1.459  -4.902   0.357  1.00  0.00    -0.300 OA
HETATM   25  C16 UNL     1       0.943  -1.551  -0.790  1.00  0.00     0.026 A 
HETATM   26  O1  UNL     1       0.362  -3.910  -1.398  1.00  0.00    -0.300 OA
HETATM   27  C17 UNL     1       0.627  -5.174  -0.777  1.00  0.00     0.304 A 
ENDBRANCH  10  19
TORSDOF 1
