REMARK  2 active torsions:
REMARK  status: ('A' for Active; 'I' for Inactive)
REMARK    1  A    between atoms: C2_2  and  O7_26 
REMARK    2  A    between atoms: C10_11  and  C11_12 
ROOT
HETATM    1  C1  UNL     1      -1.683   2.853  -0.065  1.00  0.00     0.070 C 
HETATM    2  C2  UNL     1      -1.753   1.504  -0.064  1.00  0.00     0.136 C 
HETATM    3  C3  UNL     1      -0.501   0.744  -0.365  1.00  0.00     0.218 C 
HETATM    4  C4  UNL     1       0.806   1.456  -0.290  1.00  0.00     0.044 A 
HETATM    5  C5  UNL     1       0.822   2.869  -0.323  1.00  0.00     0.042 A 
HETATM    6  C6  UNL     1      -0.452   3.627  -0.353  1.00  0.00     0.198 C 
HETATM    7  O1  UNL     1      -0.495   4.847  -0.479  1.00  0.00    -0.286 OA
HETATM    8  C7  UNL     1       2.026   3.585  -0.286  1.00  0.00     0.008 A 
HETATM    9  C8  UNL     1       3.187   2.819  -0.206  1.00  0.00     0.062 A 
HETATM   10  C9  UNL     1       3.204   1.436  -0.148  1.00  0.00     0.013 A 
HETATM   11  C10 UNL     1       2.002   0.718  -0.171  1.00  0.00     0.002 A 
HETATM   12  C18 UNL     1       4.632   0.976   0.010  1.00  0.00     0.179 A 
HETATM   13  O4  UNL     1       5.439   2.157   0.041  1.00  0.00    -0.293 OA
HETATM   14  C19 UNL     1       4.597   3.228  -0.095  1.00  0.00     0.296 A 
HETATM   15  O5  UNL     1       4.977   4.393  -0.111  1.00  0.00    -0.259 OA
HETATM   16  O6  UNL     1      -0.555  -0.437  -0.688  1.00  0.00    -0.284 OA
ENDROOT
BRANCH  11  17
HETATM   17  C11 UNL     1       2.048  -0.759   0.020  1.00  0.00     0.002 A 
HETATM   18  C12 UNL     1       2.788  -1.565  -0.860  1.00  0.00     0.026 A 
HETATM   19  C13 UNL     1       2.823  -2.933  -0.610  1.00  0.00     0.119 A 
HETATM   20  C14 UNL     1       2.127  -3.500   0.454  1.00  0.00     0.119 A 
HETATM   21  O3  UNL     1       3.481  -3.931  -1.303  1.00  0.00    -0.300 OA
HETATM   22  C15 UNL     1       1.383  -2.719   1.333  1.00  0.00     0.026 A 
HETATM   23  O2  UNL     1       2.331  -4.865   0.451  1.00  0.00    -0.300 OA
HETATM   24  C16 UNL     1       1.371  -1.338   1.107  1.00  0.00     0.002 A 
HETATM   25  C17 UNL     1       3.207  -5.172  -0.641  1.00  0.00     0.304 A 
ENDBRANCH  11  17
BRANCH   2  26
HETATM   26  O7  UNL     1      -2.920   0.894   0.330  1.00  0.00    -0.325 OA
HETATM   27  C20 UNL     1      -2.846  -0.391   0.905  1.00  0.00     0.181 C 
ENDBRANCH   2  26
TORSDOF 2
