REMARK  2 active torsions:
REMARK  status: ('A' for Active; 'I' for Inactive)
REMARK    1  A    between atoms: C3_3  and  C7_8 
REMARK    2  A    between atoms: C7_8  and  O2_9 
ROOT
HETATM    1  C1  UNL     1       0.989   1.961  -0.434  1.00  0.00     0.028 A 
HETATM    2  C2  UNL     1       1.418   0.727  -0.128  1.00  0.00     0.007 A 
HETATM    3  C3  UNL     1       0.570  -0.300   0.102  1.00  0.00     0.063 A 
HETATM    4  C4  UNL     1      -0.740  -0.003   0.004  1.00  0.00     0.007 A 
HETATM    5  C5  UNL     1      -1.171   1.232  -0.301  1.00  0.00     0.028 A 
HETATM    6  C6  UNL     1      -0.319   2.243  -0.528  1.00  0.00     0.131 A 
HETATM    7  O1  UNL     1      -0.751   3.495  -0.836  1.00  0.00    -0.190 OA
ENDROOT
BRANCH   3   8
HETATM    8  C7  UNL     1       1.084  -1.535   0.412  1.00  0.00     0.296 C 
HETATM    9  O3  UNL     1       2.299  -1.591   0.471  1.00  0.00    -0.259 OA
BRANCH   8  10
HETATM   10  O2  UNL     1       0.469  -2.737   0.676  1.00  0.00    -0.296 OA
HETATM   11  C8  UNL     1      -0.913  -2.973   0.635  1.00  0.00     0.185 C 
ENDBRANCH   8  10
ENDBRANCH   3   8
TORSDOF 2
