REMARK  3 active torsions:
REMARK  status: ('A' for Active; 'I' for Inactive)
REMARK    1  A    between atoms: C2_2  and  C9_11 
REMARK    2  A    between atoms: C5_5  and  C7_7 
REMARK    3  A    between atoms: C7_7  and  O1_8 
ROOT
HETATM    1  C1  UNL     1       1.486   0.353  -0.092  1.00  0.00     0.004 A 
HETATM    2  C2  UNL     1       1.932  -0.872   0.234  1.00  0.00     0.042 A 
HETATM    3  C3  UNL     1       1.020  -1.824   0.486  1.00  0.00     0.004 A 
HETATM    4  C4  UNL     1      -0.292  -1.549   0.413  1.00  0.00     0.005 A 
HETATM    5  C5  UNL     1      -0.766  -0.326   0.088  1.00  0.00     0.063 A 
HETATM    6  C6  UNL     1       0.169   0.611  -0.161  1.00  0.00     0.005 A 
ENDROOT
BRANCH   5   7
HETATM    7  C7  UNL     1      -2.123  -0.126   0.036  1.00  0.00     0.296 C 
HETATM    8  O2  UNL     1      -2.803  -1.102   0.297  1.00  0.00    -0.259 OA
BRANCH   7   9
HETATM    9  O1  UNL     1      -2.868   0.992  -0.261  1.00  0.00    -0.296 OA
HETATM   10  C8  UNL     1      -2.353   2.250  -0.601  1.00  0.00     0.185 C 
ENDBRANCH   7   9
ENDBRANCH   5   7
BRANCH   2  11
HETATM   11  C9  UNL     1       3.263  -1.136   0.305  1.00  0.00     0.234 C 
HETATM   12  O3  UNL     1       3.731  -2.213   0.592  1.00  0.00    -0.283 OA
ENDBRANCH   2  11
TORSDOF 3
