REMARK  2 active torsions:
REMARK  status: ('A' for Active; 'I' for Inactive)
REMARK    1  A    between atoms: C8_9  and  C9_10 
REMARK    2  A    between atoms: C13_15  and  O4_17 
ROOT
HETATM    1  C1  UNL     1      -0.239   0.805  -0.560  1.00  0.00     0.121 A 
HETATM    2  C2  UNL     1      -1.173   1.336   0.330  1.00  0.00     0.107 A 
HETATM    3  C3  UNL     1      -1.732   2.591   0.087  1.00  0.00     0.073 A 
HETATM    4  C4  UNL     1      -1.357   3.315  -1.044  1.00  0.00    -0.020 A 
HETATM    5  C5  UNL     1      -0.423   2.784  -1.934  1.00  0.00     0.003 A 
HETATM    6  C6  UNL     1       0.136   1.529  -1.691  1.00  0.00     0.087 A 
HETATM    7  C7  UNL     1       1.041   1.015  -2.553  1.00  0.00     0.300 A 
HETATM    8  O1  UNL     1       1.577  -0.189  -2.320  1.00  0.00    -0.269 OA
HETATM    9  C8  UNL     1       1.200  -0.916  -1.183  1.00  0.00     0.278 A 
HETATM   10  O7  UNL     1       1.366   1.641  -3.533  1.00  0.00    -0.259 OA
HETATM   11  O8  UNL     1      -2.640   3.107   0.951  1.00  0.00     0.000 OA
HETATM   12  O9  UNL     1      -1.538   0.633   1.429  1.00  0.00    -0.278 OA
HETATM   13  C15 UNL     1      -2.434   1.143   2.283  1.00  0.00     0.280 A 
HETATM   14  C16 UNL     1      -2.975   2.358   2.048  1.00  0.00     0.114 A 
HETATM   15  C17 UNL     1      -3.909   2.889   2.937  1.00  0.00     0.013 A 
HETATM   16  C18 UNL     1      -4.468   4.143   2.695  1.00  0.00     0.151 A 
HETATM   17  C19 UNL     1      -4.093   4.867   1.563  1.00  0.00     0.164 A 
HETATM   18  C20 UNL     1      -3.159   4.336   0.673  1.00  0.00     0.203 A 
HETATM   19  C21 UNL     1      -2.600   3.082   0.916  1.00  0.00     0.061 A 
HETATM   20  O10 UNL     1      -2.795   5.039  -0.426  1.00  0.00    -0.216 OA
HETATM   21  O11 UNL     1      -4.636   6.086   1.327  1.00  0.00    -0.190 OA
HETATM   22  O12 UNL     1      -5.376   4.659   3.559  1.00  0.00    -0.189 OA
HETATM   23  O13 UNL     1      -2.759   0.516   3.263  1.00  0.00    -0.264 OA
HETATM   24  O14 UNL     1       0.304  -0.414  -0.324  1.00  0.00    -0.302 OA
ENDROOT
BRANCH   9  25
HETATM   25  C9  UNL     1       1.950  -2.241  -1.155  1.00  0.00     0.208 C 
HETATM   26  C10 UNL     1       0.961  -3.399  -1.155  1.00  0.00     0.217 C 
HETATM   27  O2  UNL     1       0.155  -3.325  -2.300  1.00  0.00    -0.218 OA
HETATM   28  C11 UNL     1       1.722  -4.718  -1.155  1.00  0.00     0.220 C 
HETATM   29  C12 UNL     1       2.772  -4.698  -0.051  1.00  0.00     0.241 C 
HETATM   30  O6  UNL     1       0.828  -5.774  -0.928  1.00  0.00    -0.218 OA
HETATM   31  C13 UNL     1       3.590  -3.417  -0.152  1.00  0.00     0.270 C 
HETATM   32  O5  UNL     1       3.620  -5.806  -0.194  1.00  0.00    -0.215 OA
HETATM   33  O3  UNL     1       2.710  -2.336   0.020  1.00  0.00    -0.324 OA
BRANCH  31  34
HETATM   34  O4  UNL     1       4.572  -3.398   0.848  1.00  0.00    -0.326 OA
HETATM   35  C14 UNL     1       5.927  -3.310   0.498  1.00  0.00     0.177 C 
ENDBRANCH  31  34
ENDBRANCH   9  25
TORSDOF 2
