REMARK  3 active torsions:
REMARK  status: ('A' for Active; 'I' for Inactive)
REMARK    1  A    between atoms: C1_1  and  C14_16 
REMARK    2  A    between atoms: C4_4  and  O1_8 
REMARK    3  A    between atoms: C14_16  and  O3_17 
ROOT
HETATM    1  C1  UNL     1      -0.008  -1.139  -0.509  1.00  0.00     0.082 A 
HETATM    2  C2  UNL     1      -0.233   0.088   0.040  1.00  0.00     0.101 A 
HETATM    3  C3  UNL     1       0.645   0.580   0.946  1.00  0.00     0.044 A 
HETATM    4  C4  UNL     1       1.766  -0.089   1.289  1.00  0.00     0.096 A 
HETATM    5  C5  UNL     1       1.913  -1.318   0.774  1.00  0.00     0.020 A 
HETATM    6  C6  UNL     1       1.075  -1.857  -0.125  1.00  0.00    -0.013 A 
HETATM    7  C7  UNL     1       1.442  -3.252  -0.605  1.00  0.00     0.031 C 
HETATM    8  C9  UNL     1       0.418   1.776   1.518  1.00  0.00     0.002 A 
HETATM    9  C10 UNL     1      -0.663   2.502   1.224  1.00  0.00     0.001 A 
HETATM   10  C11 UNL     1      -1.685   2.026   0.237  1.00  0.00     0.117 A 
HETATM   11  O2  UNL     1      -1.358   0.789  -0.330  1.00  0.00    -0.331 OA
HETATM   12  C12 UNL     1      -3.036   1.884   0.950  1.00  0.00     0.035 C 
HETATM   13  C13 UNL     1      -1.796   3.048  -0.901  1.00  0.00     0.035 C 
ENDROOT
BRANCH   1  14
HETATM   14  C14 UNL     1      -0.886  -1.649  -1.438  1.00  0.00     0.297 C 
HETATM   15  O4  UNL     1      -1.855  -1.012  -1.795  1.00  0.00    -0.259 OA
BRANCH  14  16
HETATM   16  O3  UNL     1      -0.731  -2.865  -2.045  1.00  0.00    -0.296 OA
HETATM   17  C15 UNL     1      -1.645  -3.234  -3.051  1.00  0.00     0.185 C 
ENDBRANCH  14  16
ENDBRANCH   1  14
BRANCH   4  18
HETATM   18  O1  UNL     1       2.661   0.348   2.238  1.00  0.00    -0.328 OA
HETATM   19  C8  UNL     1       3.772   1.026   1.694  1.00  0.00     0.181 C 
ENDBRANCH   4  18
TORSDOF 3
