REMARK  2 active torsions:
REMARK  status: ('A' for Active; 'I' for Inactive)
REMARK    1  A    between atoms: C8_9  and  C9_10 
REMARK    2  A    between atoms: C13_15  and  O4_17 
ROOT
HETATM    1  C1  UNL     1      -0.582   0.247   0.389  1.00  0.00     0.129 A 
HETATM    2  C2  UNL     1      -1.516   0.778   1.278  1.00  0.00     0.176 A 
HETATM    3  C3  UNL     1      -2.075   2.033   1.036  1.00  0.00     0.131 A 
HETATM    4  C4  UNL     1      -1.700   2.757  -0.096  1.00  0.00     0.028 A 
HETATM    5  C5  UNL     1      -0.766   2.226  -0.985  1.00  0.00     0.009 A 
HETATM    6  C6  UNL     1      -0.207   0.971  -0.743  1.00  0.00     0.088 A 
HETATM    7  C7  UNL     1       0.698   0.457  -1.604  1.00  0.00     0.300 A 
HETATM    8  O1  UNL     1       1.234  -0.747  -1.372  1.00  0.00    -0.269 OA
HETATM    9  C8  UNL     1       0.857  -1.474  -0.234  1.00  0.00     0.278 A 
HETATM   10  O7  UNL     1       1.023   1.084  -2.584  1.00  0.00    -0.259 OA
HETATM   11  O8  UNL     1      -2.982   2.549   1.900  1.00  0.00    -0.271 OA
HETATM   12  C15 UNL     1      -3.519   3.752   1.667  1.00  0.00     0.300 A 
HETATM   13  C16 UNL     1      -3.155   4.454   0.571  1.00  0.00     0.068 A 
HETATM   14  C17 UNL     1      -3.714   5.708   0.329  1.00  0.00     0.035 A 
HETATM   15  C18 UNL     1      -3.339   6.432  -0.803  1.00  0.00     0.158 A 
HETATM   16  C19 UNL     1      -2.405   5.901  -1.693  1.00  0.00     0.181 A 
HETATM   17  C20 UNL     1      -1.846   4.646  -1.450  1.00  0.00     0.158 A 
HETATM   18  C21 UNL     1      -2.221   3.922  -0.318  1.00  0.00     0.035 A 
HETATM   19  O9  UNL     1      -0.938   4.130  -2.314  1.00  0.00    -0.188 OA
HETATM   20  O10 UNL     1      -2.041   6.604  -2.792  1.00  0.00    -0.186 OA
HETATM   21  O11 UNL     1      -3.882   7.651  -1.039  1.00  0.00    -0.188 OA
HETATM   22  O12 UNL     1      -4.328   4.212   2.437  1.00  0.00    -0.259 OA
HETATM   23  O13 UNL     1      -1.880   0.075   2.378  1.00  0.00    -0.186 OA
HETATM   24  O14 UNL     1      -0.039  -0.972   0.624  1.00  0.00    -0.301 OA
ENDROOT
BRANCH   9  25
HETATM   25  C9  UNL     1       1.608  -2.799  -0.206  1.00  0.00     0.208 C 
HETATM   26  C10 UNL     1       0.618  -3.957  -0.206  1.00  0.00     0.217 C 
HETATM   27  O2  UNL     1      -0.187  -3.883  -1.351  1.00  0.00    -0.218 OA
HETATM   28  C11 UNL     1       1.379  -5.276  -0.206  1.00  0.00     0.220 C 
HETATM   29  C12 UNL     1       2.429  -5.256   0.897  1.00  0.00     0.241 C 
HETATM   30  O6  UNL     1       0.485  -6.331   0.020  1.00  0.00    -0.218 OA
HETATM   31  C13 UNL     1       3.247  -3.975   0.796  1.00  0.00     0.270 C 
HETATM   32  O5  UNL     1       3.277  -6.364   0.755  1.00  0.00    -0.215 OA
HETATM   33  O3  UNL     1       2.367  -2.894   0.969  1.00  0.00    -0.324 OA
BRANCH  31  34
HETATM   34  O4  UNL     1       4.229  -3.956   1.796  1.00  0.00    -0.326 OA
HETATM   35  C14 UNL     1       5.584  -3.868   1.447  1.00  0.00     0.177 C 
ENDBRANCH  31  34
ENDBRANCH   9  25
TORSDOF 2
