REMARK  4 active torsions:
REMARK  status: ('A' for Active; 'I' for Inactive)
REMARK    1  A    between atoms: C1_1  and  O3_12 
REMARK    2  A    between atoms: C4_4  and  C7_7 
REMARK    3  A    between atoms: C7_7  and  C8_8 
REMARK    4  A    between atoms: C8_8  and  O1_9 
ROOT
HETATM    1  C1  UNL     1       1.903   1.125  -0.048  1.00  0.00     0.094 A 
HETATM    2  C2  UNL     1       2.071  -0.178  -0.348  1.00  0.00     0.024 A 
HETATM    3  C3  UNL     1       1.229  -1.132   0.075  1.00  0.00    -0.002 A 
HETATM    4  C4  UNL     1       0.160  -0.820   0.826  1.00  0.00    -0.012 A 
HETATM    5  C5  UNL     1      -0.027   0.473   1.134  1.00  0.00    -0.002 A 
HETATM    6  C6  UNL     1       0.822   1.420   0.703  1.00  0.00     0.024 A 
ENDROOT
BRANCH   4   7
HETATM    7  C7  UNL     1      -0.811  -1.879   1.298  1.00  0.00     0.122 C 
BRANCH   7   8
HETATM    8  C8  UNL     1      -2.153  -1.833   0.584  1.00  0.00     0.276 C 
HETATM    9  O2  UNL     1      -3.196  -2.198   1.078  1.00  0.00    -0.264 OA
BRANCH   8  10
HETATM   10  O1  UNL     1      -2.026  -1.331  -0.673  1.00  0.00    -0.299 OA
HETATM   11  C9  UNL     1      -3.203  -1.257  -1.443  1.00  0.00     0.184 C 
ENDBRANCH   8  10
ENDBRANCH   7   8
ENDBRANCH   4   7
BRANCH   1  12
HETATM   12  O3  UNL     1       2.808   2.038  -0.535  1.00  0.00    -0.328 OA
HETATM   13  C10 UNL     1       2.568   3.409  -0.319  1.00  0.00     0.181 C 
ENDBRANCH   1  12
TORSDOF 4
