REMARK  5 active torsions:
REMARK  status: ('A' for Active; 'I' for Inactive)
REMARK    1  A    between atoms: C6_6  and  C7_7 
REMARK    2  A    between atoms: C6_6  and  C13_16 
REMARK    3  A    between atoms: C7_7  and  C8_8 
REMARK    4  A    between atoms: C8_8  and  C9_9 
REMARK    5  A    between atoms: C13_16  and  O4_17 
ROOT
HETATM    1  C1  UNL     1      -0.558   1.359  -0.727  1.00  0.00     0.020 C 
HETATM    2  C2  UNL     1      -1.967   1.991  -0.722  1.00  0.00     0.019 C 
HETATM    3  C3  UNL     1      -2.403   2.274   0.719  1.00  0.00     0.004 C 
HETATM    4  C4  UNL     1      -2.355   1.010   1.574  1.00  0.00     0.001 C 
HETATM    5  C5  UNL     1      -0.962   0.343   1.581  1.00  0.00     0.009 C 
HETATM    6  C6  UNL     1      -0.322   0.081   0.167  1.00  0.00     0.079 C 
HETATM    7  C15 UNL     1      -1.048  -0.887   2.519  1.00  0.00     0.001 C 
HETATM    8  C16 UNL     1      -2.924   1.223  -1.609  1.00  0.00    -0.041 C 
HETATM    9  C17 UNL     1      -2.482   0.546  -2.683  1.00  0.00     0.029 C 
HETATM   10  C18 UNL     1      -1.176   0.491  -3.046  1.00  0.00     0.172 C 
HETATM   11  C19 UNL     1      -0.162   1.253  -2.210  1.00  0.00     0.070 C 
HETATM   12  O6  UNL     1      -0.813  -0.128  -4.021  1.00  0.00    -0.291 OA
HETATM   13  C20 UNL     1      -4.405   1.320  -1.329  1.00  0.00     0.026 C 
ENDROOT
BRANCH   6  14
HETATM   14  C7  UNL     1       1.222  -0.049   0.370  1.00  0.00     0.014 C 
BRANCH  14  15
HETATM   15  C8  UNL     1       1.787  -1.118   1.322  1.00  0.00     0.028 C 
BRANCH  15  16
HETATM   16  C9  UNL     1       3.274  -1.284   1.181  1.00  0.00     0.020 A 
HETATM   17  C10 UNL     1       4.271  -0.212   1.516  1.00  0.00     0.295 A 
HETATM   18  O1  UNL     1       5.536  -0.815   1.267  1.00  0.00    -0.266 OA
HETATM   19  O3  UNL     1       4.283   0.851   0.570  1.00  0.00    -0.185 OA
HETATM   20  C11 UNL     1       5.250  -2.076   0.818  1.00  0.00     0.298 A 
HETATM   21  C12 UNL     1       3.930  -2.372   0.762  1.00  0.00     0.065 A 
HETATM   22  O2  UNL     1       6.112  -2.866   0.498  1.00  0.00    -0.259 OA
ENDBRANCH  15  16
ENDBRANCH  14  15
ENDBRANCH   6  14
BRANCH   6  23
HETATM   23  C13 UNL     1      -1.048  -1.149  -0.430  1.00  0.00     0.271 C 
HETATM   24  O5  UNL     1      -2.257  -1.222  -0.353  1.00  0.00    -0.264 OA
BRANCH  23  25
HETATM   25  O4  UNL     1      -0.345  -2.253  -0.823  1.00  0.00    -0.299 OA
HETATM   26  C14 UNL     1       0.753  -2.209  -1.700  1.00  0.00     0.184 C 
ENDBRANCH  23  25
ENDBRANCH   6  23
TORSDOF 5
