REMARK  4 active torsions:
REMARK  status: ('A' for Active; 'I' for Inactive)
REMARK    1  A    between atoms: C3_3  and  C19_23 
REMARK    2  A    between atoms: C12_12  and  C15_17 
REMARK    3  A    between atoms: C15_17  and  O3_19 
REMARK    4  A    between atoms: C19_23  and  O6_25 
ROOT
HETATM    1  C1  UNL     1      -1.937   0.828  -3.124  1.00  0.00     0.001 C 
HETATM    2  C2  UNL     1      -2.901   0.178  -2.125  1.00  0.00     0.009 C 
HETATM    3  C3  UNL     1      -2.196  -0.765  -1.115  1.00  0.00     0.078 C 
HETATM    4  C4  UNL     1      -0.676  -0.420  -0.989  1.00  0.00     0.009 C 
HETATM    5  C5  UNL     1      -0.365   1.099  -1.048  1.00  0.00     0.003 C 
HETATM    6  C6  UNL     1      -0.776   1.597  -2.463  1.00  0.00     0.000 C 
HETATM    7  C7  UNL     1       1.157   1.365  -0.763  1.00  0.00     0.035 C 
HETATM    8  C8  UNL     1       2.084   0.144  -0.929  1.00  0.00     0.145 C 
HETATM    9  C9  UNL     1       1.651  -0.685  -2.128  1.00  0.00     0.035 C 
HETATM   10  C10 UNL     1       0.233  -1.244  -1.936  1.00  0.00     0.003 C 
HETATM   11  C11 UNL     1       2.139  -0.689   0.329  1.00  0.00    -0.000 C 
HETATM   12  C12 UNL     1       2.572  -0.028   1.408  1.00  0.00     0.011 C 
HETATM   13  C13 UNL     1       2.886   1.406   1.045  1.00  0.00     0.173 C 
HETATM   14  C14 UNL     1       1.564   2.022   0.579  1.00  0.00     0.040 C 
HETATM   15  O1  UNL     1       3.817   1.482  -0.020  1.00  0.00    -0.219 OA
HETATM   16  O2  UNL     1       3.398   0.611  -1.152  1.00  0.00    -0.222 OA
HETATM   17  C18 UNL     1      -1.210   1.897  -0.022  1.00  0.00     0.000 C 
HETATM   18  C21 UNL     1      -2.434  -2.231  -1.558  1.00  0.00     0.010 C 
ENDROOT
BRANCH   3  19
HETATM   19  C19 UNL     1      -2.822  -0.755   0.297  1.00  0.00     0.271 C 
HETATM   20  O5  UNL     1      -2.313  -1.285   1.261  1.00  0.00    -0.264 OA
BRANCH  19  21
HETATM   21  O6  UNL     1      -4.027  -0.128   0.345  1.00  0.00    -0.299 OA
HETATM   22  C20 UNL     1      -4.673  -0.120   1.597  1.00  0.00     0.184 C 
ENDBRANCH  19  21
ENDBRANCH   3  19
BRANCH  12  23
HETATM   23  C15 UNL     1       2.600  -0.595   2.820  1.00  0.00     0.147 C 
HETATM   24  C16 UNL     1       2.617   0.514   3.885  1.00  0.00     0.037 C 
HETATM   25  C17 UNL     1       1.348  -1.444   3.099  1.00  0.00     0.037 C 
BRANCH  23  26
HETATM   26  O3  UNL     1       3.770  -1.352   3.049  1.00  0.00    -0.191 OA
HETATM   27  O4  UNL     1       3.754  -2.484   2.112  1.00  0.00    -0.035 OA
ENDBRANCH  23  26
ENDBRANCH  12  23
TORSDOF 4
