REMARK  5 active torsions:
REMARK  status: ('A' for Active; 'I' for Inactive)
REMARK    1  A    between atoms: C10_11  and  C11_12 
REMARK    2  A    between atoms: C16_17  and  O6_51 
REMARK    3  A    between atoms: C19_20  and  C21_22 
REMARK    4  A    between atoms: C23_24  and  C33_36 
REMARK    5  A    between atoms: C27_29  and  O2_34 
ROOT
HETATM    1  C11 UNL     1      -2.174   1.471   0.778  1.00  0.00     0.002 C 
HETATM    2  C12 UNL     1      -3.313   0.818   1.104  1.00  0.00     0.004 C 
HETATM    3  C13 UNL     1      -4.332   1.488   1.678  1.00  0.00    -0.004 C 
HETATM    4  C14 UNL     1      -5.516   0.919   1.934  1.00  0.00    -0.020 C 
HETATM    5  C15 UNL     1      -5.639  -0.381   1.647  1.00  0.00     0.020 C 
HETATM    6  C16 UNL     1      -4.614  -1.130   1.201  1.00  0.00     0.096 C 
HETATM    7  C17 UNL     1      -3.430  -0.518   0.925  1.00  0.00     0.048 C 
HETATM    8  C18 UNL     1      -2.350  -1.222   0.511  1.00  0.00     0.133 C 
HETATM    9  C19 UNL     1      -1.137  -0.628   0.407  1.00  0.00     0.028 C 
HETATM   10  C20 UNL     1      -1.101   0.716   0.475  1.00  0.00     0.002 C 
HETATM   11  O5  UNL     1      -2.443  -2.561   0.266  1.00  0.00    -0.190 OA
HETATM   12  C45 UNL     1      -6.666   1.698   2.528  1.00  0.00     0.031 C 
ENDROOT
BRANCH   9  13
HETATM   13  C21 UNL     1       0.009  -1.338   0.221  1.00  0.00     0.028 A 
HETATM   14  C22 UNL     1       0.967  -0.903  -0.617  1.00  0.00     0.002 A 
HETATM   15  C23 UNL     1       2.119  -1.568  -0.816  1.00  0.00     0.002 A 
HETATM   16  C24 UNL     1       2.279  -2.769  -0.217  1.00  0.00     0.004 A 
HETATM   17  C25 UNL     1       1.366  -3.220   0.673  1.00  0.00     0.048 A 
HETATM   18  C30 UNL     1       3.339  -3.541  -0.530  1.00  0.00    -0.004 A 
HETATM   19  C26 UNL     1       0.264  -2.471   0.922  1.00  0.00     0.133 A 
HETATM   20  C27 UNL     1       1.570  -4.420   1.282  1.00  0.00     0.096 A 
HETATM   21  O1  UNL     1      -0.611  -2.853   1.897  1.00  0.00    -0.190 OA
HETATM   22  C28 UNL     1       2.699  -5.100   1.007  1.00  0.00     0.020 A 
HETATM   23  C29 UNL     1       3.584  -4.704   0.086  1.00  0.00    -0.020 A 
HETATM   24  C31 UNL     1       4.795  -5.548  -0.235  1.00  0.00     0.031 C 
BRANCH  15  25
HETATM   25  C33 UNL     1       3.062  -1.027  -1.621  1.00  0.00     0.021 A 
HETATM   26  C34 UNL     1       2.720  -0.759  -2.897  1.00  0.00     0.133 A 
HETATM   27  O3  UNL     1       1.481  -1.015  -3.403  1.00  0.00    -0.190 OA
HETATM   28  C35 UNL     1       3.675  -0.307  -3.722  1.00  0.00     0.054 A 
HETATM   29  C36 UNL     1       4.936  -0.086  -3.327  1.00  0.00     0.131 A 
HETATM   30  C37 UNL     1       5.262  -0.308  -2.037  1.00  0.00     0.021 A 
HETATM   31  O4  UNL     1       5.838   0.381  -4.234  1.00  0.00    -0.190 OA
HETATM   32  C38 UNL     1       4.318  -0.761  -1.181  1.00  0.00    -0.018 A 
HETATM   33  C41 UNL     1       6.696  -0.033  -1.599  1.00  0.00     0.122 C 
HETATM   34  C39 UNL     1       4.642  -0.830   0.305  1.00  0.00     0.050 C 
HETATM   35  C40 UNL     1       6.131  -0.959   0.627  1.00  0.00     0.103 C 
HETATM   36  N2  UNL     1       6.840   0.050  -0.148  1.00  0.00    -0.295 NA
HETATM   37  C43 UNL     1       6.649  -2.393   0.462  1.00  0.00     0.026 C 
HETATM   38  C42 UNL     1       7.714  -1.011  -2.217  1.00  0.00     0.031 C 
ENDBRANCH  15  25
BRANCH  20  39
HETATM   39  O2  UNL     1       0.757  -4.958   2.253  1.00  0.00    -0.328 OA
HETATM   40  C32 UNL     1      -0.195  -5.873   1.756  1.00  0.00     0.181 C 
ENDBRANCH  20  39
ENDBRANCH   9  13
BRANCH   1  41
HETATM   41  C10 UNL     1      -2.071   2.825   0.770  1.00  0.00     0.021 A 
HETATM   42  C3  UNL     1      -2.982   3.609   0.135  1.00  0.00    -0.018 A 
HETATM   43  C2  UNL     1      -4.025   3.011  -0.798  1.00  0.00     0.062 C 
HETATM   44  C4  UNL     1      -2.921   4.958   0.206  1.00  0.00     0.033 A 
HETATM   45  C1  UNL     1      -4.353   3.973  -1.944  1.00  0.00     0.261 C 
HETATM   46  N1  UNL     1      -4.903   5.167  -1.322  1.00  0.00     0.340 N 
HETATM   47  C46 UNL     1      -5.395   3.380  -2.905  1.00  0.00     0.038 C 
HETATM   48  C5  UNL     1      -3.966   5.867  -0.443  1.00  0.00     0.281 C 
HETATM   49  C6  UNL     1      -4.814   6.610   0.606  1.00  0.00     0.043 C 
HETATM   50  C7  UNL     1      -1.901   5.539   0.867  1.00  0.00     0.131 A 
HETATM   51  C8  UNL     1      -0.985   4.753   1.446  1.00  0.00     0.054 A 
HETATM   52  O8  UNL     1      -1.765   6.892   0.952  1.00  0.00    -0.190 OA
HETATM   53  C9  UNL     1      -1.035   3.414   1.407  1.00  0.00     0.133 A 
HETATM   54  O7  UNL     1      -0.085   2.725   2.103  1.00  0.00    -0.190 OA
ENDBRANCH   1  41
BRANCH   6  55
HETATM   55  O6  UNL     1      -4.880  -2.460   0.971  1.00  0.00    -0.328 OA
HETATM   56  C44 UNL     1      -4.762  -3.276   2.117  1.00  0.00     0.181 C 
ENDBRANCH   6  55
TORSDOF 5
