REMARK  4 active torsions:
REMARK  status: ('A' for Active; 'I' for Inactive)
REMARK    1  A    between atoms: C1_2  and  C2_3 
REMARK    2  A    between atoms: C2_3  and  C3_4 
REMARK    3  A    between atoms: C3_4  and  C4_5 
REMARK    4  A    between atoms: C9_10  and  C10_11 
ROOT
HETATM    1  C4  UNL     1      -1.258  -0.591   0.101  1.00  0.00     0.019 C 
HETATM    2  C5  UNL     1      -0.014   0.323   0.039  1.00  0.00    -0.049 C 
HETATM    3  C6  UNL     1       1.342  -0.383  -0.021  1.00  0.00     0.018 C 
HETATM    4  C7  UNL     1       1.372  -1.439  -1.138  1.00  0.00     0.004 C 
HETATM    5  C8  UNL     1       0.210  -2.425  -1.000  1.00  0.00     0.005 C 
HETATM    6  C9  UNL     1      -1.129  -1.667  -1.021  1.00  0.00     0.022 C 
HETATM    7  C13 UNL     1       2.508   0.622  -0.152  1.00  0.00     0.010 C 
HETATM    8  C14 UNL     1       2.276   1.762   0.867  1.00  0.00     0.056 C 
HETATM    9  C15 UNL     1       1.088   2.596   0.381  1.00  0.00     0.032 C 
HETATM   10  C16 UNL     1      -0.086   1.665   0.158  1.00  0.00    -0.034 C 
HETATM   11  C17 UNL     1       3.639   2.432   0.869  1.00  0.00     0.150 C 
HETATM   12  C18 UNL     1       4.702   1.384   0.576  1.00  0.00     0.065 C 
HETATM   13  C19 UNL     1       3.910   0.105   0.240  1.00  0.00     0.009 C 
HETATM   14  O2  UNL     1       3.847   3.603   1.081  1.00  0.00    -0.296 OA
HETATM   15  C20 UNL     1       2.034   1.336   2.334  1.00  0.00     0.008 C 
HETATM   16  C21 UNL     1       2.616   1.163  -1.605  1.00  0.00     0.001 C 
HETATM   17  C22 UNL     1      -1.272  -1.217   1.515  1.00  0.00     0.004 C 
ENDROOT
BRANCH   1  18
HETATM   18  C3  UNL     1      -2.611   0.154  -0.108  1.00  0.00     0.015 C 
BRANCH  18  19
HETATM   19  C2  UNL     1      -3.235   0.920   1.077  1.00  0.00     0.098 C 
BRANCH  19  20
HETATM   20  C1  UNL     1      -4.536   1.621   0.724  1.00  0.00     0.185 C 
HETATM   21  O1  UNL     1      -4.417   2.403  -0.364  1.00  0.00    -0.647 OA
HETATM   22  O3  UNL     1      -5.575   1.551   1.337  1.00  0.00    -0.647 OA
ENDBRANCH  19  20
ENDBRANCH  18  19
ENDBRANCH   1  18
BRANCH   6  23
HETATM   23  C10 UNL     1      -2.267  -2.673  -1.136  1.00  0.00    -0.044 C 
HETATM   24  C11 UNL     1      -3.161  -2.549  -2.350  1.00  0.00     0.026 C 
HETATM   25  C12 UNL     1      -2.450  -3.672  -0.257  1.00  0.00    -0.009 C 
ENDBRANCH   6  23
TORSDOF 4
