REMARK  4 active torsions:
REMARK  status: ('A' for Active; 'I' for Inactive)
REMARK    1  A    between atoms: C9_11  and  C10_12 
REMARK    2  A    between atoms: C11_13  and  C13_15 
REMARK    3  A    between atoms: C13_15  and  C14_16 
REMARK    4  A    between atoms: C14_16  and  C15_17 
ROOT
HETATM    1  C1  UNL     1      -1.020   1.514  -4.317  1.00  0.00     0.009 C 
HETATM    2  C2  UNL     1      -1.002   0.218  -3.974  1.00  0.00     0.035 C 
HETATM    3  C3  UNL     1      -0.005  -0.345  -3.246  1.00  0.00     0.175 C 
HETATM    4  C4  UNL     1       1.168   0.519  -2.763  1.00  0.00     0.097 C 
HETATM    5  C5  UNL     1       0.729   1.985  -2.642  1.00  0.00     0.048 C 
HETATM    6  C6  UNL     1       0.069   2.470  -3.925  1.00  0.00     0.175 C 
HETATM    7  O1  UNL     1      -0.467   3.763  -3.719  1.00  0.00    -0.219 OA
HETATM    8  C7  UNL     1       2.325   0.319  -3.755  1.00  0.00     0.106 C 
HETATM    9  C8  UNL     1       3.090  -0.857  -3.187  1.00  0.00     0.273 C 
HETATM   10  O2  UNL     1       2.772  -0.984  -1.874  1.00  0.00    -0.299 OA
HETATM   11  C9  UNL     1       1.826  -0.013  -1.479  1.00  0.00     0.153 C 
HETATM   12  O3  UNL     1       3.878  -1.551  -3.790  1.00  0.00    -0.264 OA
HETATM   13  O4  UNL     1      -0.021  -1.534  -3.019  1.00  0.00    -0.291 OA
ENDROOT
BRANCH  11  14
HETATM   14  C10 UNL     1       0.876  -0.567  -0.442  1.00  0.00    -0.004 C 
HETATM   15  C11 UNL     1       0.296   0.080   0.585  1.00  0.00    -0.045 C 
HETATM   16  C12 UNL     1       0.504   1.537   0.922  1.00  0.00     0.026 C 
BRANCH  15  17
HETATM   17  C13 UNL     1      -0.622  -0.674   1.530  1.00  0.00     0.026 C 
BRANCH  17  18
HETATM   18  C14 UNL     1       0.123  -1.120   2.797  1.00  0.00     0.030 C 
BRANCH  18  19
HETATM   19  C15 UNL     1      -0.738  -2.029   3.639  1.00  0.00    -0.034 C 
HETATM   20  C16 UNL     1      -1.458  -1.698   4.726  1.00  0.00    -0.048 C 
HETATM   21  C17 UNL     1      -2.253  -2.744   5.476  1.00  0.00     0.026 C 
HETATM   22  C18 UNL     1      -1.553  -0.308   5.306  1.00  0.00     0.026 C 
ENDBRANCH  18  19
ENDBRANCH  17  18
ENDBRANCH  15  17
ENDBRANCH  11  14
TORSDOF 4
