REMARK  3 active torsions:
REMARK  status: ('A' for Active; 'I' for Inactive)
REMARK    1  A    between atoms: C9_11  and  C12_15 
REMARK    2  A    between atoms: C13_16  and  O4_17 
REMARK    3  A    between atoms: C17_21  and  O5_23 
ROOT
HETATM    1  C1  UNL     1      -4.418  -1.081  -0.363  1.00  0.00     0.102 A 
HETATM    2  C2  UNL     1      -4.557  -1.963   0.632  1.00  0.00     0.025 A 
HETATM    3  C3  UNL     1      -3.461  -2.275   1.345  1.00  0.00     0.007 A 
HETATM    4  C4  UNL     1      -2.259  -1.723   1.072  1.00  0.00     0.062 A 
HETATM    5  C5  UNL     1      -2.107  -0.844   0.063  1.00  0.00     0.105 A 
HETATM    6  C6  UNL     1      -3.219  -0.549  -0.627  1.00  0.00     0.048 A 
HETATM    7  C7  UNL     1      -3.436   0.271  -1.663  1.00  0.00     0.031 A 
HETATM    8  C8  UNL     1      -4.748   0.138  -1.901  1.00  0.00     0.123 A 
HETATM    9  O1  UNL     1      -5.284  -0.656  -1.127  1.00  0.00    -0.305 OA
HETATM   10  O2  UNL     1      -0.918  -0.272  -0.267  1.00  0.00    -0.307 OA
HETATM   11  C9  UNL     1       0.170  -0.532   0.524  1.00  0.00     0.105 A 
HETATM   12  C10 UNL     1       0.009  -1.422   1.528  1.00  0.00     0.067 A 
HETATM   13  C11 UNL     1      -1.168  -2.039   1.819  1.00  0.00     0.200 A 
HETATM   14  O3  UNL     1      -1.222  -2.827   2.739  1.00  0.00    -0.286 OA
ENDROOT
BRANCH  11  15
HETATM   15  C12 UNL     1       1.357   0.094   0.266  1.00  0.00     0.047 A 
HETATM   16  C13 UNL     1       1.491   0.929  -0.804  1.00  0.00     0.096 A 
HETATM   17  C15 UNL     1       2.702   1.485  -1.017  1.00  0.00     0.026 A 
HETATM   18  C16 UNL     1       3.750   1.296  -0.208  1.00  0.00     0.026 A 
HETATM   19  C17 UNL     1       3.625   0.550   0.897  1.00  0.00     0.094 A 
HETATM   20  C18 UNL     1       2.443  -0.073   1.055  1.00  0.00     0.028 A 
BRANCH  16  21
HETATM   21  O4  UNL     1       0.446   1.143  -1.677  1.00  0.00    -0.328 OA
HETATM   22  C14 UNL     1       0.655   1.829  -2.890  1.00  0.00     0.181 C 
ENDBRANCH  16  21
BRANCH  19  23
HETATM   23  O5  UNL     1       4.696   0.300   1.716  1.00  0.00    -0.328 OA
HETATM   24  C19 UNL     1       4.811   1.216   2.782  1.00  0.00     0.181 C 
ENDBRANCH  19  23
ENDBRANCH  11  15
TORSDOF 3
