REMARK  5 active torsions:
REMARK  status: ('A' for Active; 'I' for Inactive)
REMARK    1  A    between atoms: C2_2  and  O6_23 
REMARK    2  A    between atoms: C5_5  and  C8_9 
REMARK    3  A    between atoms: C6_6  and  O1_7 
REMARK    4  A    between atoms: C8_9  and  C9_10 
REMARK    5  A    between atoms: C10_11  and  C11_13 
ROOT
HETATM    1  C8  UNL     1       2.760  -0.794   0.154  1.00  0.00     0.200 C 
HETATM    2  O5  UNL     1       3.680  -1.556   0.371  1.00  0.00    -0.286 OA
ENDROOT
BRANCH   1   3
HETATM    3  C5  UNL     1       1.604  -1.304  -0.380  1.00  0.00     0.061 A 
HETATM    4  C4  UNL     1       1.373  -2.622  -0.210  1.00  0.00     0.007 A 
HETATM    5  C3  UNL     1       0.255  -3.214  -0.650  1.00  0.00     0.024 A 
HETATM    6  C2  UNL     1      -0.679  -2.522  -1.325  1.00  0.00     0.096 A 
HETATM    7  C1  UNL     1      -0.391  -1.226  -1.538  1.00  0.00     0.049 A 
HETATM    8  C6  UNL     1       0.706  -0.579  -1.093  1.00  0.00     0.099 A 
BRANCH   6   9
HETATM    9  O6  UNL     1      -1.859  -3.032  -1.809  1.00  0.00    -0.328 OA
HETATM   10  C18 UNL     1      -2.199  -4.364  -1.500  1.00  0.00     0.181 C 
ENDBRANCH   6   9
BRANCH   8  11
HETATM   11  O1  UNL     1       0.966   0.724  -1.450  1.00  0.00    -0.328 OA
HETATM   12  C7  UNL     1       0.401   1.250  -2.628  1.00  0.00     0.181 C 
ENDBRANCH   8  11
ENDBRANCH   1   3
BRANCH   1  13
HETATM   13  C9  UNL     1       3.018   0.518   0.428  1.00  0.00     0.070 C 
HETATM   14  C10 UNL     1       2.236   1.587   0.709  1.00  0.00     0.134 C 
HETATM   15  O2  UNL     1       2.866   2.800   0.629  1.00  0.00    -0.190 OA
BRANCH  14  16
HETATM   16  C11 UNL     1       0.941   1.561   1.114  1.00  0.00     0.028 A 
HETATM   17  C12 UNL     1       0.213   2.701   1.120  1.00  0.00     0.028 A 
HETATM   18  C13 UNL     1      -1.075   2.683   1.485  1.00  0.00     0.119 A 
HETATM   19  C14 UNL     1      -1.669   1.555   1.884  1.00  0.00     0.119 A 
HETATM   20  O4  UNL     1      -1.863   3.625   1.506  1.00  0.00    -0.300 OA
HETATM   21  C15 UNL     1      -0.972   0.417   1.948  1.00  0.00     0.026 A 
HETATM   22  O3  UNL     1      -2.846   1.740   2.179  1.00  0.00    -0.300 OA
HETATM   23  C16 UNL     1       0.319   0.450   1.572  1.00  0.00     0.004 A 
HETATM   24  C17 UNL     1      -3.123   3.123   1.956  1.00  0.00     0.304 A 
ENDBRANCH  14  16
ENDBRANCH   1  13
TORSDOF 5
