REMARK  3 active torsions:
REMARK  status: ('A' for Active; 'I' for Inactive)
REMARK    1  A    between atoms: C4_4  and  O4_18 
REMARK    2  A    between atoms: O4_18  and  C15_19 
REMARK    3  A    between atoms: C15_19  and  C16_20 
ROOT
HETATM    1  C1  UNL     1       1.413   2.768   0.131  1.00  0.00    -0.002 C 
HETATM    2  C2  UNL     1       1.483   1.811  -0.816  1.00  0.00    -0.043 C 
HETATM    3  C3  UNL     1       1.700   0.368  -0.394  1.00  0.00     0.052 C 
HETATM    4  C4  UNL     1       0.547  -0.600  -0.750  1.00  0.00     0.135 C 
HETATM    5  C5  UNL     1      -0.872  -0.001  -0.787  1.00  0.00     0.088 C 
HETATM    6  C6  UNL     1      -1.500   0.473   0.537  1.00  0.00     0.152 C 
HETATM    7  C7  UNL     1      -1.136   1.877   0.951  1.00  0.00    -0.004 C 
HETATM    8  C8  UNL     1      -1.303   3.016   0.251  1.00  0.00    -0.043 C 
HETATM    9  C9  UNL     1      -0.506   4.246   0.655  1.00  0.00     0.059 C 
HETATM   10  C10 UNL     1       0.909   4.192   0.048  1.00  0.00     0.178 C 
HETATM   11  O1  UNL     1       0.900   4.744  -1.253  1.00  0.00    -0.218 OA
HETATM   12  C11 UNL     1      -2.104   3.140  -1.020  1.00  0.00     0.026 C 
HETATM   13  O2  UNL     1      -2.890   0.239   0.476  1.00  0.00    -0.296 OA
HETATM   14  C12 UNL     1      -3.077  -0.656  -0.532  1.00  0.00     0.292 C 
HETATM   15  C13 UNL     1      -1.970  -0.922  -1.268  1.00  0.00     0.046 C 
HETATM   16  C14 UNL     1      -1.924  -1.802  -2.277  1.00  0.00     0.001 C 
HETATM   17  O3  UNL     1      -4.156  -1.170  -0.739  1.00  0.00    -0.259 OA
HETATM   18  C20 UNL     1       1.365   2.029  -2.306  1.00  0.00     0.026 C 
ENDROOT
BRANCH   4  19
HETATM   19  O4  UNL     1       0.526  -1.681   0.138  1.00  0.00    -0.302 OA
BRANCH  19  20
HETATM   20  C15 UNL     1       1.592  -2.527   0.168  1.00  0.00     0.299 C 
HETATM   21  O6  UNL     1       2.498  -2.533  -0.634  1.00  0.00    -0.262 OA
BRANCH  20  22
HETATM   22  C16 UNL     1       1.492  -3.399   1.343  1.00  0.00     0.195 A 
HETATM   23  C17 UNL     1       1.482  -2.721   2.703  1.00  0.00     0.043 C 
HETATM   24  C18 UNL     1       0.975  -4.729   1.155  1.00  0.00     0.150 A 
HETATM   25  C19 UNL     1       0.283  -5.461   2.294  1.00  0.00     0.035 C 
HETATM   26  O5  UNL     1       2.371  -4.739   1.335  1.00  0.00    -0.347 OA
ENDBRANCH  20  22
ENDBRANCH  19  20
ENDBRANCH   4  19
TORSDOF 3
