REMARK  2 active torsions:
REMARK  status: ('A' for Active; 'I' for Inactive)
REMARK    1  A    between atoms: C8_8  and  C10_11 
REMARK    2  A    between atoms: C14_17  and  C15_18 
ROOT
HETATM    1  C1  UNL     1      -1.682   0.073  -0.024  1.00  0.00     0.053 C 
HETATM    2  C2  UNL     1      -1.908  -1.372   0.383  1.00  0.00     0.157 C 
HETATM    3  C3  UNL     1      -0.842  -2.181  -0.355  1.00  0.00     0.196 C 
HETATM    4  C4  UNL     1       0.413  -1.656  -0.454  1.00  0.00     0.041 C 
HETATM    5  C5  UNL     1       0.710  -0.408  -0.030  1.00  0.00    -0.019 C 
HETATM    6  C6  UNL     1      -0.339   0.561   0.493  1.00  0.00     0.030 C 
HETATM    7  C7  UNL     1       1.976   0.029  -0.151  1.00  0.00     0.020 C 
HETATM    8  C8  UNL     1       3.001  -0.762  -0.522  1.00  0.00     0.094 C 
HETATM    9  O1  UNL     1       2.799  -2.091  -0.792  1.00  0.00    -0.326 OA
HETATM   10  C9  UNL     1       1.486  -2.475  -1.132  1.00  0.00     0.178 C 
HETATM   11  O2  UNL     1      -1.118  -3.285  -0.768  1.00  0.00    -0.289 OA
HETATM   12  O3  UNL     1      -3.246  -1.593   0.016  1.00  0.00    -0.299 OA
HETATM   13  C13 UNL     1      -3.940  -0.415   0.052  1.00  0.00     0.279 C 
HETATM   14  C14 UNL     1      -2.992   0.733   0.395  1.00  0.00     0.147 C 
HETATM   15  O5  UNL     1      -5.126  -0.298  -0.166  1.00  0.00    -0.264 OA
HETATM   16  C17 UNL     1      -1.769  -1.709   1.874  1.00  0.00     0.038 C 
ENDROOT
BRANCH   8  17
HETATM   17  C10 UNL     1       4.253  -0.276  -0.670  1.00  0.00     0.020 C 
HETATM   18  C11 UNL     1       4.714   0.973  -0.488  1.00  0.00    -0.024 C 
HETATM   19  C12 UNL     1       6.154   1.365  -0.702  1.00  0.00     0.031 C 
ENDBRANCH   8  17
BRANCH  14  20
HETATM   20  C15 UNL     1      -3.303   2.055  -0.295  1.00  0.00     0.160 C 
HETATM   21  C16 UNL     1      -4.416   2.906   0.287  1.00  0.00     0.073 C 
HETATM   22  O4  UNL     1      -2.656   2.432  -1.246  1.00  0.00    -0.295 OA
ENDBRANCH  14  20
TORSDOF 2
