REMARK  3 active torsions:
REMARK  status: ('A' for Active; 'I' for Inactive)
REMARK    1  A    between atoms: C1_1  and  O6_22 
REMARK    2  A    between atoms: O6_22  and  C17_23 
REMARK    3  A    between atoms: C18_25  and  C22_32 
ROOT
HETATM    1  C1  UNL     1      -1.897  -0.426  -0.495  1.00  0.00     0.099 A 
HETATM    2  C2  UNL     1      -1.881  -1.768  -0.578  1.00  0.00     0.024 A 
HETATM    3  C3  UNL     1      -0.741  -2.454  -0.736  1.00  0.00     0.002 A 
HETATM    4  C4  UNL     1       0.436  -1.816  -0.827  1.00  0.00     0.033 A 
HETATM    5  C5  UNL     1       0.471  -0.469  -0.779  1.00  0.00     0.095 A 
HETATM    6  C6  UNL     1      -0.696   0.177  -0.586  1.00  0.00     0.048 A 
HETATM    7  O1  UNL     1       1.635   0.254  -0.851  1.00  0.00    -0.327 OA
HETATM    8  C7  UNL     1       2.824  -0.448  -0.585  1.00  0.00     0.173 C 
HETATM    9  C8  UNL     1       2.849  -1.716  -1.419  1.00  0.00     0.182 C 
HETATM   10  C9  UNL     1       1.706  -2.616  -0.989  1.00  0.00     0.206 C 
HETATM   11  O2  UNL     1       2.055  -3.213   0.248  1.00  0.00    -0.216 OA
HETATM   12  O3  UNL     1       4.053  -2.387  -1.205  1.00  0.00    -0.346 OA
HETATM   13  C10 UNL     1       5.145  -1.673  -1.748  1.00  0.00     0.171 C 
HETATM   14  C11 UNL     1       5.142  -0.193  -1.424  1.00  0.00     0.033 A 
HETATM   15  C12 UNL     1       4.053   0.384  -0.881  1.00  0.00     0.008 A 
HETATM   16  C13 UNL     1       4.078   1.698  -0.602  1.00  0.00     0.000 A 
HETATM   17  C14 UNL     1       5.168   2.427  -0.873  1.00  0.00     0.029 A 
HETATM   18  C15 UNL     1       6.255   1.860  -1.420  1.00  0.00     0.156 A 
HETATM   19  C16 UNL     1       6.239   0.543  -1.693  1.00  0.00     0.154 A 
HETATM   20  O4  UNL     1       7.349  -0.019  -2.247  1.00  0.00    -0.188 OA
HETATM   21  O5  UNL     1       7.360   2.603  -1.696  1.00  0.00    -0.188 OA
ENDROOT
BRANCH   1  22
HETATM   22  O6  UNL     1      -3.094   0.220  -0.283  1.00  0.00    -0.304 OA
BRANCH  22  23
HETATM   23  C17 UNL     1      -3.129   1.336   0.576  1.00  0.00     0.274 C 
HETATM   24  O7  UNL     1      -2.757   0.939   1.878  1.00  0.00    -0.326 OA
HETATM   25  C18 UNL     1      -3.712   0.233   2.626  1.00  0.00     0.184 C 
HETATM   26  C19 UNL     1      -5.070   0.921   2.646  1.00  0.00     0.215 C 
HETATM   27  C20 UNL     1      -5.566   1.312   1.269  1.00  0.00     0.220 C 
HETATM   28  O10 UNL     1      -4.981   2.092   3.431  1.00  0.00    -0.218 OA
HETATM   29  C21 UNL     1      -4.466   2.045   0.526  1.00  0.00     0.241 C 
HETATM   30  O9  UNL     1      -5.965   0.176   0.541  1.00  0.00    -0.218 OA
HETATM   31  O8  UNL     1      -4.308   3.318   1.113  1.00  0.00    -0.215 OA
BRANCH  25  32
HETATM   32  C22 UNL     1      -3.752  -1.249   2.275  1.00  0.00     0.214 C 
HETATM   33  O11 UNL     1      -4.429  -1.970   3.286  1.00  0.00    -0.218 OA
ENDBRANCH  25  32
ENDBRANCH  22  23
ENDBRANCH   1  22
TORSDOF 3
