REMARK  1 active torsions:
REMARK  status: ('A' for Active; 'I' for Inactive)
REMARK    1  A    between atoms: C3_3  and  O4_19 
ROOT
HETATM    1  C1  UNL     1      -3.726  -0.057  -0.261  1.00  0.00     0.029 A 
HETATM    2  C2  UNL     1      -3.416  -1.341  -0.045  1.00  0.00     0.153 A 
HETATM    3  C3  UNL     1      -2.124  -1.709   0.096  1.00  0.00     0.122 A 
HETATM    4  C4  UNL     1      -1.159  -0.750   0.101  1.00  0.00     0.066 A 
HETATM    5  C5  UNL     1      -1.481   0.541  -0.115  1.00  0.00     0.044 A 
HETATM    6  C6  UNL     1      -2.770   0.876  -0.307  1.00  0.00     0.005 A 
HETATM    7  C7  UNL     1      -0.541   1.527  -0.142  1.00  0.00     0.198 A 
HETATM    8  C8  UNL     1       0.769   1.212   0.062  1.00  0.00     0.067 A 
HETATM    9  C9  UNL     1       1.090  -0.079   0.279  1.00  0.00     0.044 A 
HETATM   10  C10 UNL     1       0.151  -1.067   0.304  1.00  0.00     0.198 A 
HETATM   11  O1  UNL     1       0.514  -2.206   0.498  1.00  0.00    -0.286 OA
HETATM   12  C11 UNL     1       2.379  -0.414   0.475  1.00  0.00     0.003 A 
HETATM   13  C12 UNL     1       3.337   0.518   0.455  1.00  0.00    -0.002 A 
HETATM   14  C13 UNL     1       3.023   1.803   0.240  1.00  0.00     0.004 A 
HETATM   15  C14 UNL     1       1.738   2.164   0.037  1.00  0.00     0.130 A 
HETATM   16  O2  UNL     1       1.502   3.497  -0.148  1.00  0.00    -0.190 OA
HETATM   17  C15 UNL     1       4.124   2.844   0.223  1.00  0.00     0.033 C 
HETATM   18  O3  UNL     1      -0.897   2.665  -0.353  1.00  0.00    -0.286 OA
HETATM   19  O5  UNL     1      -4.408  -2.274   0.021  1.00  0.00    -0.188 OA
ENDROOT
BRANCH   3  20
HETATM   20  O4  UNL     1      -1.891  -3.040   0.357  1.00  0.00    -0.326 OA
HETATM   21  C16 UNL     1      -1.636  -3.818  -0.793  1.00  0.00     0.181 C 
ENDBRANCH   3  20
TORSDOF 1
