REMARK  2 active torsions:
REMARK  status: ('A' for Active; 'I' for Inactive)
REMARK    1  A    between atoms: C1_1  and  C19_25 
REMARK    2  A    between atoms: C19_25  and  C20_26 
ROOT
HETATM    1  C1  UNL     1       0.312   0.709  -0.831  1.00  0.00     0.030 A 
HETATM    2  C2  UNL     1       0.722   0.860   0.445  1.00  0.00     0.094 A 
HETATM    3  C3  UNL     1      -0.104   0.432   1.418  1.00  0.00     0.045 A 
HETATM    4  C4  UNL     1      -1.321  -0.086   1.141  1.00  0.00     0.107 A 
HETATM    5  C5  UNL     1      -1.717  -0.211  -0.142  1.00  0.00     0.087 A 
HETATM    6  C6  UNL     1      -0.893   0.183  -1.141  1.00  0.00     0.134 A 
HETATM    7  O1  UNL     1      -1.189   0.052  -2.469  1.00  0.00    -0.190 OA
HETATM    8  C7  UNL     1      -2.958  -0.727  -0.399  1.00  0.00     0.203 A 
HETATM    9  C8  UNL     1      -3.779  -1.113   0.622  1.00  0.00     0.089 A 
HETATM   10  C9  UNL     1      -3.338  -0.981   1.888  1.00  0.00     0.130 A 
HETATM   11  O2  UNL     1      -2.111  -0.479   2.179  1.00  0.00    -0.305 OA
HETATM   12  C10 UNL     1      -4.115  -1.349   2.926  1.00  0.00     0.154 A 
HETATM   13  C11 UNL     1      -5.335  -1.847   2.684  1.00  0.00     0.032 A 
HETATM   14  C12 UNL     1      -5.771  -1.976   1.427  1.00  0.00     0.030 A 
HETATM   15  C13 UNL     1      -5.011  -1.617   0.379  1.00  0.00     0.136 A 
HETATM   16  O3  UNL     1      -5.540  -1.784  -0.867  1.00  0.00    -0.190 OA
HETATM   17  O4  UNL     1      -3.658  -1.212   4.201  1.00  0.00    -0.188 OA
HETATM   18  O5  UNL     1      -3.352  -0.835  -1.537  1.00  0.00    -0.286 OA
HETATM   19  C14 UNL     1       0.290   0.556   2.699  1.00  0.00     0.002 C 
HETATM   20  C15 UNL     1       1.520   0.982   3.007  1.00  0.00     0.001 C 
HETATM   21  C16 UNL     1       2.546   1.250   1.942  1.00  0.00     0.117 C 
HETATM   22  O6  UNL     1       1.957   1.409   0.683  1.00  0.00    -0.332 OA
HETATM   23  C17 UNL     1       3.307   2.540   2.264  1.00  0.00     0.035 C 
HETATM   24  C18 UNL     1       3.517   0.066   1.876  1.00  0.00     0.035 C 
ENDROOT
BRANCH   1  25
HETATM   25  C19 UNL     1       1.232   1.141  -1.968  1.00  0.00     0.056 C 
BRANCH  25  26
HETATM   26  C20 UNL     1       1.940  -0.048  -2.567  1.00  0.00    -0.030 C 
HETATM   27  C21 UNL     1       2.731  -0.018  -3.655  1.00  0.00    -0.048 C 
HETATM   28  C22 UNL     1       3.386  -1.270  -4.189  1.00  0.00     0.026 C 
HETATM   29  C23 UNL     1       3.041   1.237  -4.435  1.00  0.00     0.026 C 
ENDBRANCH  25  26
ENDBRANCH   1  25
TORSDOF 2
