REMARK  0 active torsions:
REMARK  status: ('A' for Active; 'I' for Inactive)
ROOT
HETATM    1  C1  UNL     1       1.652   0.954  -0.826  1.00  0.00     0.098 A 
HETATM    2  C2  UNL     1       1.244   0.737  -2.085  1.00  0.00     0.052 A 
HETATM    3  C3  UNL     1       0.074   0.167  -2.414  1.00  0.00     0.138 A 
HETATM    4  C4  UNL     1      -0.755  -0.201  -1.409  1.00  0.00     0.087 A 
HETATM    5  C5  UNL     1      -0.374  -0.019  -0.125  1.00  0.00     0.107 A 
HETATM    6  C6  UNL     1       0.827   0.538   0.153  1.00  0.00     0.045 A 
HETATM    7  C7  UNL     1       1.214   0.729   1.429  1.00  0.00     0.002 C 
HETATM    8  C8  UNL     1       2.443   1.178   1.712  1.00  0.00     0.001 C 
HETATM    9  C9  UNL     1       3.474   1.363   0.630  1.00  0.00     0.117 C 
HETATM   10  O1  UNL     1       2.867   1.553  -0.617  1.00  0.00    -0.331 OA
HETATM   11  C10 UNL     1       4.341   2.591   0.921  1.00  0.00     0.035 C 
HETATM   12  C11 UNL     1       4.348   0.104   0.560  1.00  0.00     0.035 C 
HETATM   13  O2  UNL     1      -1.168  -0.394   0.916  1.00  0.00    -0.305 OA
HETATM   14  C12 UNL     1      -2.386  -0.920   0.628  1.00  0.00     0.130 A 
HETATM   15  C13 UNL     1      -2.804  -1.118  -0.637  1.00  0.00     0.089 A 
HETATM   16  C14 UNL     1      -1.973  -0.767  -1.662  1.00  0.00     0.203 A 
HETATM   17  O3  UNL     1      -2.330  -0.957  -2.802  1.00  0.00    -0.286 OA
HETATM   18  C15 UNL     1      -4.026  -1.650  -0.878  1.00  0.00     0.136 A 
HETATM   19  C16 UNL     1      -4.800  -1.968   0.173  1.00  0.00     0.030 A 
HETATM   20  C17 UNL     1      -4.387  -1.774   1.430  1.00  0.00     0.032 A 
HETATM   21  C18 UNL     1      -3.177  -1.251   1.668  1.00  0.00     0.154 A 
HETATM   22  O4  UNL     1      -2.744  -1.048   2.943  1.00  0.00    -0.188 OA
HETATM   23  O5  UNL     1      -4.530  -1.877  -2.124  1.00  0.00    -0.190 OA
HETATM   24  O6  UNL     1      -0.196   0.058  -3.748  1.00  0.00    -0.190 OA
ENDROOT
TORSDOF 0
