REMARK  5 active torsions:
REMARK  status: ('A' for Active; 'I' for Inactive)
REMARK    1  A    between atoms: C3_3  and  O5_11 
REMARK    2  A    between atoms: C4_4  and  C5_6 
REMARK    3  A    between atoms: C5_6  and  C6_7 
REMARK    4  A    between atoms: O5_11  and  C7_12 
REMARK    5  A    between atoms: C7_12  and  C8_13 
ROOT
HETATM    1  C1  UNL     1      -2.270   2.059  -1.974  1.00  0.00     0.305 C 
HETATM    2  C2  UNL     1      -1.894   0.596  -1.990  1.00  0.00     0.267 C 
HETATM    3  C3  UNL     1      -0.498   0.740  -1.586  1.00  0.00     0.195 C 
HETATM    4  C4  UNL     1      -0.281   2.108  -1.096  1.00  0.00     0.196 C 
HETATM    5  O1  UNL     1      -1.127   2.810  -1.961  1.00  0.00    -0.296 OA
HETATM    6  O10 UNL     1      -2.764  -0.134  -1.168  1.00  0.00    -0.210 OA
HETATM    7  O11 UNL     1      -3.394   2.505  -1.974  1.00  0.00    -0.261 OA
ENDROOT
BRANCH   3   8
HETATM    8  O5  UNL     1       0.485   0.134  -2.301  1.00  0.00    -0.295 OA
BRANCH   8   9
HETATM    9  C7  UNL     1       1.234  -0.940  -1.864  1.00  0.00     0.296 C 
HETATM   10  O9  UNL     1       2.062  -1.348  -2.661  1.00  0.00    -0.259 OA
BRANCH   9  11
HETATM   11  C8  UNL     1       1.116  -1.542  -0.636  1.00  0.00     0.067 A 
HETATM   12  C9  UNL     1       1.893  -2.579  -0.286  1.00  0.00     0.035 A 
HETATM   13  C10 UNL     1       1.752  -3.145   0.925  1.00  0.00     0.158 A 
HETATM   14  C11 UNL     1       0.838  -2.691   1.806  1.00  0.00     0.181 A 
HETATM   15  O8  UNL     1       2.526  -4.204   1.293  1.00  0.00    -0.188 OA
HETATM   16  C12 UNL     1       0.038  -1.677   1.530  1.00  0.00     0.158 A 
HETATM   17  O7  UNL     1       0.665  -3.245   3.030  1.00  0.00    -0.186 OA
HETATM   18  C13 UNL     1       0.257  -1.188   0.314  1.00  0.00     0.035 A 
HETATM   19  O6  UNL     1      -0.903  -1.135   2.330  1.00  0.00    -0.188 OA
ENDBRANCH   9  11
ENDBRANCH   8   9
ENDBRANCH   3   8
BRANCH   4  20
HETATM   20  C5  UNL     1      -0.647   2.399   0.361  1.00  0.00     0.268 C 
HETATM   21  O4  UNL     1      -1.729   3.296   0.375  1.00  0.00    -0.209 OA
BRANCH  20  22
HETATM   22  C6  UNL     1       0.539   2.977   1.105  1.00  0.00     0.220 C 
HETATM   23  O2  UNL     1       1.040   4.114   0.616  1.00  0.00    -0.645 OA
HETATM   24  O3  UNL     1       0.996   2.434   2.075  1.00  0.00    -0.645 OA
ENDBRANCH  20  22
ENDBRANCH   4  20
TORSDOF 5
