REMARK  6 active torsions:
REMARK  status: ('A' for Active; 'I' for Inactive)
REMARK    1  A    between atoms: C5_5  and  C7_7 
REMARK    2  A    between atoms: C7_7  and  O1_8 
REMARK    3  A    between atoms: O1_8  and  C8_9 
REMARK    4  A    between atoms: C8_9  and  C9_10 
REMARK    5  A    between atoms: C8_9  and  C13_18 
REMARK    6  A    between atoms: C13_18  and  O6_19 
ROOT
HETATM    1  C8  UNL     1      -2.199   0.483  -0.190  1.00  0.00     0.174 C 
ENDROOT
BRANCH   1   2
HETATM    2  O1  UNL     1      -1.936  -0.455   0.831  1.00  0.00    -0.269 OA
BRANCH   2   3
HETATM    3  C7  UNL     1      -0.751  -0.938   1.335  1.00  0.00     0.300 C 
HETATM    4  O8  UNL     1      -0.897  -1.875   2.099  1.00  0.00    -0.259 OA
BRANCH   3   5
HETATM    5  C5  UNL     1       0.551  -0.560   1.140  1.00  0.00     0.068 A 
HETATM    6  C4  UNL     1       1.557  -1.279   1.679  1.00  0.00     0.035 A 
HETATM    7  C3  UNL     1       2.851  -0.973   1.488  1.00  0.00     0.158 A 
HETATM    8  C2  UNL     1       3.180   0.091   0.737  1.00  0.00     0.181 A 
HETATM    9  O9  UNL     1       3.831  -1.740   2.037  1.00  0.00    -0.188 OA
HETATM   10  C1  UNL     1       2.206   0.850   0.206  1.00  0.00     0.158 A 
HETATM   11  O10 UNL     1       4.494   0.387   0.538  1.00  0.00    -0.186 OA
HETATM   12  C6  UNL     1       0.927   0.509   0.425  1.00  0.00     0.035 A 
HETATM   13  O11 UNL     1       2.492   1.929  -0.573  1.00  0.00    -0.188 OA
ENDBRANCH   3   5
ENDBRANCH   2   3
ENDBRANCH   1   2
BRANCH   1  14
HETATM   14  C9  UNL     1      -1.921   0.031  -1.640  1.00  0.00     0.208 C 
HETATM   15  C10 UNL     1      -1.925  -1.471  -1.907  1.00  0.00     0.226 C 
HETATM   16  C11 UNL     1      -0.477  -1.787  -2.225  1.00  0.00     0.270 C 
HETATM   17  O5  UNL     1      -2.705  -1.744  -3.048  1.00  0.00    -0.217 OA
HETATM   18  C12 UNL     1       0.149  -0.442  -2.496  1.00  0.00     0.306 C 
HETATM   19  O4  UNL     1       0.166  -2.356  -1.104  1.00  0.00    -0.210 OA
HETATM   20  O2  UNL     1      -0.711   0.533  -2.129  1.00  0.00    -0.293 OA
HETATM   21  O3  UNL     1       1.286  -0.272  -2.877  1.00  0.00    -0.261 OA
ENDBRANCH   1  14
BRANCH   1  22
HETATM   22  C13 UNL     1      -1.952   1.953   0.154  1.00  0.00     0.317 C 
HETATM   23  O7  UNL     1      -1.750   2.815  -0.672  1.00  0.00    -0.257 OA
BRANCH  22  24
HETATM   24  O6  UNL     1      -1.962   2.153   1.498  1.00  0.00    -0.294 OA
HETATM   25  C14 UNL     1      -1.692   3.462   1.938  1.00  0.00     0.185 C 
ENDBRANCH  22  24
ENDBRANCH   1  22
TORSDOF 6
