REMARK  2 active torsions:
REMARK  status: ('A' for Active; 'I' for Inactive)
REMARK    1  A    between atoms: C7_7  and  C12_14 
REMARK    2  A    between atoms: C8_8  and  C11_12 
ROOT
HETATM    1  C1  UNL     1      -1.743   0.604  -1.604  1.00  0.00     0.000 C 
HETATM    2  C2  UNL     1      -2.475  -0.254  -0.569  1.00  0.00     0.000 C 
HETATM    3  C3  UNL     1      -1.527  -1.234   0.167  1.00  0.00     0.003 C 
HETATM    4  C4  UNL     1      -0.064  -0.666   0.246  1.00  0.00     0.038 C 
HETATM    5  C5  UNL     1       0.020   0.889   0.301  1.00  0.00     0.039 C 
HETATM    6  C6  UNL     1      -0.633   1.468  -0.982  1.00  0.00     0.003 C 
HETATM    7  C7  UNL     1       1.490   1.380   0.409  1.00  0.00     0.205 C 
HETATM    8  C8  UNL     1       2.427   0.748  -0.595  1.00  0.00     0.053 C 
HETATM    9  C9  UNL     1       2.129  -0.440  -1.138  1.00  0.00     0.008 C 
HETATM   10  C10 UNL     1       0.889  -1.230  -0.827  1.00  0.00     0.174 C 
HETATM   11  O1  UNL     1       1.327  -2.527  -0.454  1.00  0.00    -0.219 OA
HETATM   12  O4  UNL     1       1.523   2.788   0.202  1.00  0.00    -0.213 OA
HETATM   13  C13 UNL     1      -0.704   1.471   1.546  1.00  0.00     0.003 C 
HETATM   14  C14 UNL     1      -2.091  -1.514   1.586  1.00  0.00     0.000 C 
HETATM   15  C15 UNL     1      -1.637  -2.611  -0.542  1.00  0.00     0.000 C 
ENDROOT
BRANCH   7  16
HETATM   16  C12 UNL     1       2.110   1.122   1.782  1.00  0.00     0.241 C 
HETATM   17  O3  UNL     1       2.719   2.017   2.319  1.00  0.00    -0.285 OA
ENDBRANCH   7  16
BRANCH   8  18
HETATM   18  C11 UNL     1       3.584   1.372  -0.939  1.00  0.00     0.232 C 
HETATM   19  O2  UNL     1       3.903   2.434  -0.458  1.00  0.00    -0.283 OA
ENDBRANCH   8  18
TORSDOF 2
