REMARK  7 active torsions:
REMARK  status: ('A' for Active; 'I' for Inactive)
REMARK    1  A    between atoms: C6_6  and  C7_7 
REMARK    2  A    between atoms: C7_7  and  C8_8 
REMARK    3  A    between atoms: C9_9  and  C11_11 
REMARK    4  A    between atoms: C11_11  and  C12_12 
REMARK    5  A    between atoms: C12_12  and  C13_13 
REMARK    6  A    between atoms: C17_18  and  C19_20 
REMARK    7  A    between atoms: C25_28  and  C27_30 
ROOT
HETATM    1  C1  UNL     1      -2.275  -0.187  -0.258  1.00  0.00     0.129 A 
HETATM    2  C2  UNL     1      -2.384  -1.532  -0.216  1.00  0.00     0.027 A 
HETATM    3  C3  UNL     1      -1.325  -2.355  -0.249  1.00  0.00     0.004 A 
HETATM    4  C4  UNL     1      -0.127  -1.772  -0.309  1.00  0.00     0.025 A 
HETATM    5  C5  UNL     1       0.009  -0.447  -0.360  1.00  0.00     0.098 A 
HETATM    6  C6  UNL     1      -1.049   0.383  -0.348  1.00  0.00     0.030 A 
HETATM    7  O1  UNL     1       1.198  -0.137  -0.391  1.00  0.00    -0.307 OA
HETATM    8  C17 UNL     1       1.911  -1.151  -0.343  1.00  0.00     0.100 A 
HETATM    9  C18 UNL     1       1.123  -2.243  -0.311  1.00  0.00     0.027 A 
HETATM   10  O5  UNL     1      -3.422   0.542  -0.185  1.00  0.00    -0.190 OA
ENDROOT
BRANCH   8  11
HETATM   11  C19 UNL     1       3.259  -1.063  -0.283  1.00  0.00     0.023 A 
HETATM   12  C20 UNL     1       4.119  -2.100  -0.209  1.00  0.00     0.005 A 
HETATM   13  C21 UNL     1       5.441  -1.902  -0.107  1.00  0.00     0.092 A 
HETATM   14  C26 UNL     1       3.857  -3.581  -0.194  1.00  0.00     0.061 A 
HETATM   15  C22 UNL     1       5.967  -0.672  -0.085  1.00  0.00     0.051 A 
HETATM   16  O3  UNL     1       6.118  -2.925  -0.030  1.00  0.00    -0.331 OA
HETATM   17  C23 UNL     1       5.152   0.390  -0.174  1.00  0.00     0.133 A 
HETATM   18  C24 UNL     1       3.829   0.164  -0.269  1.00  0.00     0.029 A 
HETATM   19  O2  UNL     1       5.642   1.659  -0.158  1.00  0.00    -0.190 OA
HETATM   20  C25 UNL     1       5.309  -4.094  -0.141  1.00  0.00     0.153 A 
BRANCH  20  21
HETATM   21  C27 UNL     1       5.628  -5.115   0.960  1.00  0.00     0.152 C 
HETATM   22  C28 UNL     1       4.814  -6.396   0.772  1.00  0.00     0.036 C 
HETATM   23  C29 UNL     1       5.437  -4.549   2.368  1.00  0.00     0.036 C 
HETATM   24  O4  UNL     1       6.982  -5.471   0.836  1.00  0.00    -0.224 OA
ENDBRANCH  20  21
ENDBRANCH   8  11
BRANCH   6  25
HETATM   25  C7  UNL     1      -0.776   1.878  -0.390  1.00  0.00     0.056 C 
BRANCH  25  26
HETATM   26  C8  UNL     1      -1.951   2.780  -0.664  1.00  0.00    -0.030 C 
HETATM   27  C9  UNL     1      -2.287   3.902  -0.001  1.00  0.00    -0.048 C 
HETATM   28  C10 UNL     1      -1.445   4.522   1.092  1.00  0.00     0.026 C 
BRANCH  27  29
HETATM   29  C11 UNL     1      -3.565   4.670  -0.292  1.00  0.00     0.026 C 
BRANCH  29  30
HETATM   30  C12 UNL     1      -4.725   3.836  -0.862  1.00  0.00     0.030 C 
BRANCH  30  31
HETATM   31  C13 UNL     1      -6.027   4.601  -0.843  1.00  0.00    -0.034 C 
HETATM   32  C14 UNL     1      -7.245   4.107  -0.554  1.00  0.00    -0.048 C 
HETATM   33  C15 UNL     1      -8.462   5.004  -0.523  1.00  0.00     0.026 C 
HETATM   34  C16 UNL     1      -7.537   2.661  -0.230  1.00  0.00     0.026 C 
ENDBRANCH  30  31
ENDBRANCH  29  30
ENDBRANCH  27  29
ENDBRANCH  25  26
ENDBRANCH   6  25
TORSDOF 7
