REMARK  25 active torsions:
REMARK  status: ('A' for Active; 'I' for Inactive)
REMARK    1  A    between atoms: C1_1  and  C2_2 
REMARK    2  A    between atoms: C1_1  and  C8_10 
REMARK    3  A    between atoms: C2_2  and  C3_3 
REMARK    4  A    between atoms: C3_3  and  C4_5 
REMARK    5  A    between atoms: C4_5  and  C5_6 
REMARK    6  A    between atoms: C5_6  and  C6_7 
REMARK    7  A    between atoms: C9_11  and  C10_12 
REMARK    8  A    between atoms: C10_12  and  C11_13 
REMARK    9  A    between atoms: C11_13  and  C12_14 
REMARK   10  A    between atoms: C12_14  and  C13_15 
REMARK   11  A    between atoms: C14_17  and  C17_20 
REMARK   12  A    between atoms: C17_20  and  C18_21 
REMARK   13  A    between atoms: C18_21  and  C19_22 
REMARK   14  A    between atoms: C19_22  and  C20_23 
REMARK   15  A    between atoms: C20_23  and  C21_24 
REMARK   16  A    between atoms: C21_24  and  C22_25 
REMARK   17  A    between atoms: C22_25  and  C23_26 
REMARK   18  A    between atoms: C23_26  and  C24_27 
REMARK   19  A    between atoms: C24_27  and  C25_28 
REMARK   20  A    between atoms: C25_28  and  C26_29 
REMARK   21  A    between atoms: C26_29  and  C27_30 
REMARK   22  A    between atoms: C27_30  and  C28_31 
REMARK   23  A    between atoms: C28_31  and  C29_32 
REMARK   24  A    between atoms: C29_32  and  C30_33 
REMARK   25  A    between atoms: C30_33  and  C31_34 
ROOT
HETATM    1  C17 UNL     1       3.346  -1.433  -2.514  1.00  0.00     0.030 C 
ENDROOT
BRANCH   1   2
HETATM    2  C14 UNL     1       3.557  -0.594  -3.780  1.00  0.00     0.115 C 
HETATM    3  O3  UNL     1       2.537  -0.859  -4.706  1.00  0.00    -0.357 OA
HETATM    4  C13 UNL     1       1.528   0.083  -4.490  1.00  0.00     0.146 C 
HETATM    5  C16 UNL     1       2.276   1.393  -4.281  1.00  0.00     0.035 C 
HETATM    6  C15 UNL     1       3.528   0.918  -3.533  1.00  0.00     0.032 C 
BRANCH   4   7
HETATM    7  C12 UNL     1       0.563   0.066  -5.665  1.00  0.00     0.179 C 
HETATM    8  O7  UNL     1       0.185  -1.272  -5.886  1.00  0.00    -0.221 OA
BRANCH   7   9
HETATM    9  C11 UNL     1      -0.681   0.937  -5.464  1.00  0.00     0.040 C 
BRANCH   9  10
HETATM   10  C10 UNL     1      -1.705   0.368  -4.466  1.00  0.00     0.028 C 
BRANCH  10  11
HETATM   11  C9  UNL     1      -2.769   1.372  -4.094  1.00  0.00    -0.030 C 
HETATM   12  C8  UNL     1      -3.491   1.340  -2.961  1.00  0.00    -0.028 C 
BRANCH  12  13
HETATM   13  C1  UNL     1      -3.389   0.274  -1.899  1.00  0.00     0.061 C 
BRANCH  13  14
HETATM   14  C2  UNL     1      -4.708  -0.003  -1.174  1.00  0.00     0.187 C 
HETATM   15  O2  UNL     1      -4.490  -1.038  -0.243  1.00  0.00    -0.220 OA
BRANCH  14  16
HETATM   16  C3  UNL     1      -5.935  -0.328  -2.031  1.00  0.00     0.183 C 
HETATM   17  O1  UNL     1      -6.584   0.894  -2.319  1.00  0.00    -0.221 OA
BRANCH  16  18
HETATM   18  C4  UNL     1      -5.734  -1.083  -3.352  1.00  0.00     0.036 C 
BRANCH  18  19
HETATM   19  C5  UNL     1      -6.013  -2.596  -3.321  1.00  0.00     0.003 C 
BRANCH  19  20
HETATM   20  C6  UNL     1      -4.997  -3.421  -2.520  1.00  0.00     0.000 C 
HETATM   21  C7  UNL     1      -5.198  -4.929  -2.729  1.00  0.00     0.000 C 
ENDBRANCH  19  20
ENDBRANCH  18  19
ENDBRANCH  16  18
ENDBRANCH  14  16
ENDBRANCH  13  14
ENDBRANCH  12  13
ENDBRANCH  10  11
ENDBRANCH   9  10
ENDBRANCH   7   9
ENDBRANCH   4   7
ENDBRANCH   1   2
BRANCH   1  22
HETATM   22  C18 UNL     1       4.540  -1.397  -1.542  1.00  0.00     0.003 C 
BRANCH  22  23
HETATM   23  C19 UNL     1       4.236  -2.182  -0.255  1.00  0.00     0.000 C 
BRANCH  23  24
HETATM   24  C20 UNL     1       5.376  -2.104   0.774  1.00  0.00     0.000 C 
BRANCH  24  25
HETATM   25  C21 UNL     1       5.014  -2.840   2.076  1.00  0.00     0.000 C 
BRANCH  25  26
HETATM   26  C22 UNL     1       6.067  -2.635   3.182  1.00  0.00     0.000 C 
BRANCH  26  27
HETATM   27  C23 UNL     1       5.580  -3.051   4.584  1.00  0.00     0.000 C 
BRANCH  27  28
HETATM   28  C24 UNL     1       4.984  -1.903   5.424  1.00  0.00     0.000 C 
BRANCH  28  29
HETATM   29  C25 UNL     1       3.764  -1.235   4.778  1.00  0.00     0.000 C 
BRANCH  29  30
HETATM   30  C26 UNL     1       3.134  -0.117   5.626  1.00  0.00     0.000 C 
BRANCH  30  31
HETATM   31  C27 UNL     1       1.923   0.477   4.888  1.00  0.00     0.003 C 
BRANCH  31  32
HETATM   32  C28 UNL     1       1.316   1.707   5.582  1.00  0.00     0.033 C 
BRANCH  32  33
HETATM   33  C29 UNL     1       0.128   2.257   4.788  1.00  0.00     0.157 C 
HETATM   34  O6  UNL     1      -0.929   1.327   4.838  1.00  0.00    -0.223 OA
BRANCH  33  35
HETATM   35  C30 UNL     1      -0.387   3.595   5.315  1.00  0.00     0.064 C 
BRANCH  35  36
HETATM   36  C31 UNL     1      -1.512   4.185   4.506  1.00  0.00     0.042 A 
HETATM   37  C32 UNL     1      -2.227   5.293   4.819  1.00  0.00     0.292 A 
HETATM   38  O4  UNL     1      -3.193   5.646   3.917  1.00  0.00    -0.297 OA
HETATM   39  O5  UNL     1      -2.021   5.931   5.830  1.00  0.00    -0.260 OA
HETATM   40  C33 UNL     1      -3.121   4.677   2.889  1.00  0.00     0.146 A 
HETATM   41  C34 UNL     1      -2.010   3.767   3.337  1.00  0.00     0.005 A 
HETATM   42  C35 UNL     1      -2.822   5.339   1.548  1.00  0.00     0.038 C 
ENDBRANCH  35  36
ENDBRANCH  33  35
ENDBRANCH  32  33
ENDBRANCH  31  32
ENDBRANCH  30  31
ENDBRANCH  29  30
ENDBRANCH  28  29
ENDBRANCH  27  28
ENDBRANCH  26  27
ENDBRANCH  25  26
ENDBRANCH  24  25
ENDBRANCH  23  24
ENDBRANCH  22  23
ENDBRANCH   1  22
TORSDOF 25
