REMARK  6 active torsions:
REMARK  status: ('A' for Active; 'I' for Inactive)
REMARK    1  A    between atoms: C6_7  and  C13_17 
REMARK    2  A    between atoms: C7_8  and  O4_15 
REMARK    3  A    between atoms: C8_9  and  O3_13 
REMARK    4  A    between atoms: C9_10  and  O2_11 
REMARK    5  A    between atoms: C13_17  and  C14_18 
REMARK    6  A    between atoms: C14_18  and  C15_20 
ROOT
HETATM    1  C1  UNL     1      -0.564   3.250   0.921  1.00  0.00     0.300 A 
HETATM    2  C2  UNL     1       0.385   3.391   1.877  1.00  0.00     0.069 A 
HETATM    3  C3  UNL     1       1.279   2.411   2.062  1.00  0.00     0.009 A 
HETATM    4  C4  UNL     1       1.262   1.280   1.328  1.00  0.00     0.047 A 
HETATM    5  C5  UNL     1       0.311   1.158   0.381  1.00  0.00     0.103 A 
HETATM    6  O1  UNL     1      -0.620   2.137   0.143  1.00  0.00    -0.273 OA
HETATM    7  C6  UNL     1       0.268   0.026  -0.352  1.00  0.00     0.028 C 
HETATM    8  C7  UNL     1       1.161  -0.966  -0.160  1.00  0.00     0.116 C 
HETATM    9  C8  UNL     1       2.038  -0.864   0.863  1.00  0.00     0.138 C 
HETATM   10  C9  UNL     1       2.167   0.300   1.540  1.00  0.00     0.120 C 
HETATM   11  O7  UNL     1      -1.373   4.141   0.762  1.00  0.00    -0.259 OA
ENDROOT
BRANCH   7  12
HETATM   12  C13 UNL     1      -0.829  -0.098  -1.404  1.00  0.00     0.066 C 
BRANCH  12  13
HETATM   13  C14 UNL     1      -2.173  -0.464  -0.767  1.00  0.00     0.184 C 
HETATM   14  O5  UNL     1      -2.198  -1.848  -0.501  1.00  0.00    -0.221 OA
BRANCH  13  15
HETATM   15  C15 UNL     1      -3.413  -0.125  -1.593  1.00  0.00     0.155 C 
HETATM   16  C16 UNL     1      -3.696   1.380  -1.595  1.00  0.00     0.036 C 
HETATM   17  O6  UNL     1      -4.492  -0.752  -0.946  1.00  0.00    -0.223 OA
HETATM   18  C17 UNL     1      -3.354  -0.666  -3.022  1.00  0.00     0.036 C 
ENDBRANCH  13  15
ENDBRANCH  12  13
ENDBRANCH   7  12
BRANCH   8  19
HETATM   19  O4  UNL     1       1.077  -2.143  -0.867  1.00  0.00    -0.326 OA
HETATM   20  C12 UNL     1       1.966  -2.218  -1.961  1.00  0.00     0.181 C 
ENDBRANCH   8  19
BRANCH   9  21
HETATM   21  O3  UNL     1       2.931  -1.885   1.098  1.00  0.00    -0.324 OA
HETATM   22  C11 UNL     1       2.480  -2.828   2.044  1.00  0.00     0.182 C 
ENDBRANCH   9  21
BRANCH  10  23
HETATM   23  O2  UNL     1       3.100   0.386   2.549  1.00  0.00    -0.326 OA
HETATM   24  C10 UNL     1       4.363   0.846   2.121  1.00  0.00     0.181 C 
ENDBRANCH  10  23
TORSDOF 6
