REMARK  7 active torsions:
REMARK  status: ('A' for Active; 'I' for Inactive)
REMARK    1  A    between atoms: C6_6  and  O1_7 
REMARK    2  A    between atoms: O1_7  and  C7_8 
REMARK    3  A    between atoms: C7_8  and  C8_9 
REMARK    4  A    between atoms: C9_10  and  C10_11 
REMARK    5  A    between atoms: C10_11  and  C11_12 
REMARK    6  A    between atoms: C11_12  and  C12_13 
REMARK    7  A    between atoms: C12_13  and  C13_14 
ROOT
HETATM    1  O1  UNL     1      -1.319  -1.045  -1.783  1.00  0.00    -0.326 OA
ENDROOT
BRANCH   1   2
HETATM    2  C6  UNL     1      -2.448  -1.472  -2.460  1.00  0.00     0.098 A 
HETATM    3  C1  UNL     1      -2.296  -2.709  -2.979  1.00  0.00     0.052 A 
HETATM    4  C2  UNL     1      -3.225  -3.372  -3.676  1.00  0.00     0.135 A 
HETATM    5  C3  UNL     1      -4.390  -2.741  -3.850  1.00  0.00     0.052 A 
HETATM    6  O6  UNL     1      -2.995  -4.617  -4.172  1.00  0.00    -0.190 OA
HETATM    7  C4  UNL     1      -4.628  -1.512  -3.363  1.00  0.00     0.107 A 
HETATM    8  C5  UNL     1      -3.654  -0.870  -2.666  1.00  0.00     0.045 A 
HETATM    9  O4  UNL     1      -5.872  -0.995  -3.622  1.00  0.00    -0.273 OA
HETATM   10  C17 UNL     1      -3.997   0.360  -2.233  1.00  0.00     0.009 A 
HETATM   11  C18 UNL     1      -5.194   0.925  -2.448  1.00  0.00     0.069 A 
HETATM   12  C19 UNL     1      -6.134   0.244  -3.142  1.00  0.00     0.300 A 
HETATM   13  O5  UNL     1      -7.216   0.761  -3.331  1.00  0.00    -0.259 OA
ENDBRANCH   1   2
BRANCH   1  14
HETATM   14  C7  UNL     1      -1.238   0.152  -1.049  1.00  0.00     0.174 C 
BRANCH  14  15
HETATM   15  C8  UNL     1       0.071   0.255  -0.299  1.00  0.00    -0.002 C 
HETATM   16  C9  UNL     1       0.455   1.336   0.406  1.00  0.00    -0.046 C 
HETATM   17  C16 UNL     1      -0.395   2.584   0.515  1.00  0.00     0.026 C 
BRANCH  16  18
HETATM   18  C10 UNL     1       1.743   1.417   1.202  1.00  0.00     0.025 C 
BRANCH  18  19
HETATM   19  C11 UNL     1       2.757   0.276   1.053  1.00  0.00     0.040 C 
BRANCH  19  20
HETATM   20  C12 UNL     1       4.103   0.513   1.749  1.00  0.00     0.180 C 
HETATM   21  O3  UNL     1       4.963  -0.537   1.358  1.00  0.00    -0.221 OA
BRANCH  20  22
HETATM   22  C13 UNL     1       4.150   0.574   3.280  1.00  0.00     0.155 C 
HETATM   23  C14 UNL     1       3.326  -0.525   3.952  1.00  0.00     0.036 C 
HETATM   24  O2  UNL     1       5.496   0.356   3.632  1.00  0.00    -0.223 OA
HETATM   25  C15 UNL     1       3.790   1.948   3.853  1.00  0.00     0.036 C 
ENDBRANCH  20  22
ENDBRANCH  19  20
ENDBRANCH  18  19
ENDBRANCH  16  18
ENDBRANCH  14  15
ENDBRANCH   1  14
TORSDOF 7
