REMARK  6 active torsions:
REMARK  status: ('A' for Active; 'I' for Inactive)
REMARK    1  A    between atoms: C6_7  and  C13_17 
REMARK    2  A    between atoms: C7_8  and  O4_15 
REMARK    3  A    between atoms: C8_9  and  O3_13 
REMARK    4  A    between atoms: C9_10  and  O2_11 
REMARK    5  A    between atoms: C13_17  and  C14_18 
REMARK    6  A    between atoms: C14_18  and  C15_19 
ROOT
HETATM    1  C1  UNL     1      -2.185   3.020  -0.428  1.00  0.00     0.300 A 
HETATM    2  C2  UNL     1      -1.174   3.825  -0.024  1.00  0.00     0.069 A 
HETATM    3  C3  UNL     1      -0.066   3.271   0.487  1.00  0.00     0.009 A 
HETATM    4  C4  UNL     1       0.079   1.936   0.608  1.00  0.00     0.047 A 
HETATM    5  C5  UNL     1      -0.931   1.150   0.184  1.00  0.00     0.104 A 
HETATM    6  O1  UNL     1      -2.094   1.667  -0.325  1.00  0.00    -0.273 OA
HETATM    7  C6  UNL     1      -0.772  -0.189   0.235  1.00  0.00     0.032 A 
HETATM    8  C7  UNL     1       0.373  -0.738   0.698  1.00  0.00     0.117 A 
HETATM    9  C8  UNL     1       1.333   0.064   1.216  1.00  0.00     0.138 A 
HETATM   10  C9  UNL     1       1.197   1.410   1.156  1.00  0.00     0.120 A 
HETATM   11  O6  UNL     1      -3.188   3.526  -0.891  1.00  0.00    -0.259 OA
ENDROOT
BRANCH   7  12
HETATM   12  C13 UNL     1      -1.903  -1.095  -0.244  1.00  0.00     0.095 C 
BRANCH  12  13
HETATM   13  C14 UNL     1      -1.568  -2.119  -1.324  1.00  0.00     0.155 C 
HETATM   14  O5  UNL     1      -1.671  -3.301  -1.075  1.00  0.00    -0.296 OA
BRANCH  13  15
HETATM   15  C15 UNL     1      -1.182  -1.705  -2.743  1.00  0.00     0.058 C 
HETATM   16  C16 UNL     1      -2.253  -2.180  -3.739  1.00  0.00     0.008 C 
HETATM   17  C17 UNL     1      -0.881  -0.216  -2.955  1.00  0.00     0.008 C 
ENDBRANCH  13  15
ENDBRANCH  12  13
ENDBRANCH   7  12
BRANCH   8  18
HETATM   18  O4  UNL     1       0.494  -2.106   0.742  1.00  0.00    -0.326 OA
HETATM   19  C12 UNL     1       1.427  -2.665  -0.158  1.00  0.00     0.181 C 
ENDBRANCH   8  18
BRANCH   9  20
HETATM   20  O3  UNL     1       2.503  -0.462   1.716  1.00  0.00    -0.324 OA
HETATM   21  C11 UNL     1       2.395  -1.110   2.965  1.00  0.00     0.182 C 
ENDBRANCH   9  20
BRANCH  10  22
HETATM   22  O2  UNL     1       2.245   2.215   1.547  1.00  0.00    -0.326 OA
HETATM   23  C10 UNL     1       2.205   2.622   2.897  1.00  0.00     0.181 C 
ENDBRANCH  10  22
TORSDOF 6
