REMARK  5 active torsions:
REMARK  status: ('A' for Active; 'I' for Inactive)
REMARK    1  A    between atoms: C1_1  and  O7_37 
REMARK    2  A    between atoms: C3_3  and  O5_34 
REMARK    3  A    between atoms: C5_5  and  C7_7 
REMARK    4  A    between atoms: C8_8  and  C9_9 
REMARK    5  A    between atoms: C14_15  and  O3_18 
ROOT
HETATM    1  C7  UNL     1      -2.396  -1.603   0.900  1.00  0.00     0.150 A 
HETATM    2  C8  UNL     1      -0.859  -1.478   0.849  1.00  0.00     0.091 A 
HETATM    3  C10 UNL     1      -0.813   0.020   0.893  1.00  0.00     0.025 A 
HETATM    4  C11 UNL     1       0.268   0.799   0.874  1.00  0.00     0.080 A 
HETATM    5  C12 UNL     1       0.115   2.128   0.903  1.00  0.00     0.021 A 
HETATM    6  C13 UNL     1      -1.103   2.682   0.950  1.00  0.00     0.028 A 
HETATM    7  C14 UNL     1      -2.222   1.922   0.977  1.00  0.00     0.116 A 
HETATM    8  C15 UNL     1      -2.031   0.582   0.937  1.00  0.00     0.114 A 
HETATM    9  O2  UNL     1      -2.916  -0.273   0.945  1.00  0.00    -0.327 OA
HETATM   10  C17 UNL     1       1.355   2.634   0.865  1.00  0.00     0.019 A 
HETATM   11  C18 UNL     1       2.197   1.593   0.819  1.00  0.00     0.083 A 
HETATM   12  N1  UNL     1       1.505   0.529   0.824  1.00  0.00    -0.246 NA
HETATM   13  C19 UNL     1       3.524   1.768   0.765  1.00  0.00     0.039 A 
HETATM   14  C20 UNL     1       4.018   3.027   0.791  1.00  0.00     0.092 A 
HETATM   15  C21 UNL     1       3.156   4.073   0.818  1.00  0.00     0.001 A 
HETATM   16  C22 UNL     1       1.823   3.884   0.859  1.00  0.00    -0.001 A 
HETATM   17  C23 UNL     1       3.701   5.486   0.817  1.00  0.00     0.033 C 
HETATM   18  O4  UNL     1       5.367   3.281   0.760  1.00  0.00    -0.332 OA
HETATM   19  C24 UNL     1       6.199   2.282   0.239  1.00  0.00     0.117 C 
HETATM   20  C25 UNL     1       5.662   0.905   0.538  1.00  0.00     0.001 C 
HETATM   21  C26 UNL     1       4.351   0.711   0.721  1.00  0.00     0.001 C 
HETATM   22  C27 UNL     1       7.588   2.462   0.858  1.00  0.00     0.035 C 
HETATM   23  C28 UNL     1       6.273   2.454  -1.284  1.00  0.00     0.035 C 
ENDROOT
BRANCH   1  24
HETATM   24  C5  UNL     1      -2.986  -2.345  -0.280  1.00  0.00     0.009 A 
HETATM   25  C4  UNL     1      -3.717  -3.457  -0.121  1.00  0.00     0.025 A 
HETATM   26  C3  UNL     1      -4.255  -4.114  -1.166  1.00  0.00     0.121 A 
HETATM   27  C2  UNL     1      -4.052  -3.622  -2.410  1.00  0.00     0.175 A 
HETATM   28  C1  UNL     1      -3.304  -2.512  -2.619  1.00  0.00     0.121 A 
HETATM   29  O6  UNL     1      -4.613  -4.308  -3.445  1.00  0.00    -0.186 OA
HETATM   30  C6  UNL     1      -2.807  -1.896  -1.530  1.00  0.00     0.025 A 
BRANCH  26  31
HETATM   31  O5  UNL     1      -5.029  -5.246  -1.041  1.00  0.00    -0.326 OA
HETATM   32  C29 UNL     1      -5.412  -5.688   0.240  1.00  0.00     0.181 C 
ENDBRANCH  26  31
BRANCH  28  33
HETATM   33  O7  UNL     1      -3.041  -1.907  -3.829  1.00  0.00    -0.326 OA
HETATM   34  C30 UNL     1      -3.804  -2.209  -4.971  1.00  0.00     0.181 C 
ENDBRANCH  28  33
ENDBRANCH   1  24
BRANCH   2  35
HETATM   35  C9  UNL     1      -0.143  -2.141   2.018  1.00  0.00     0.190 C 
HETATM   36  O1  UNL     1      -0.321  -3.540   1.934  1.00  0.00    -0.220 OA
ENDBRANCH   2  35
BRANCH   7  37
HETATM   37  O3  UNL     1      -3.428   2.586   1.000  1.00  0.00    -0.326 OA
HETATM   38  C16 UNL     1      -4.635   1.882   0.838  1.00  0.00     0.181 C 
ENDBRANCH   7  37
TORSDOF 5
