REMARK  4 active torsions:
REMARK  status: ('A' for Active; 'I' for Inactive)
REMARK    1  A    between atoms: C1_1  and  O6_23 
REMARK    2  A    between atoms: C8_9  and  C11_13 
REMARK    3  A    between atoms: O6_23  and  C18_24 
REMARK    4  A    between atoms: C19_26  and  C23_33 
ROOT
HETATM    1  C1  UNL     1      -1.311  -1.176  -0.488  1.00  0.00     0.093 A 
HETATM    2  C2  UNL     1      -1.497  -2.404   0.041  1.00  0.00     0.026 A 
HETATM    3  C3  UNL     1      -0.464  -3.154   0.482  1.00  0.00     0.134 A 
HETATM    4  C4  UNL     1       0.792  -2.664   0.378  1.00  0.00     0.082 A 
HETATM    5  C5  UNL     1       1.009  -1.461  -0.200  1.00  0.00     0.097 A 
HETATM    6  C6  UNL     1      -0.043  -0.742  -0.645  1.00  0.00     0.023 A 
HETATM    7  C7  UNL     1       0.249   0.578  -1.344  1.00  0.00     0.035 C 
HETATM    8  O1  UNL     1       2.257  -0.902  -0.319  1.00  0.00    -0.329 OA
HETATM    9  C8  UNL     1       3.168  -1.267   0.679  1.00  0.00     0.153 C 
HETATM   10  C9  UNL     1       3.262  -2.782   0.657  1.00  0.00     0.104 C 
HETATM   11  C10 UNL     1       1.872  -3.383   0.803  1.00  0.00     0.180 C 
HETATM   12  O2  UNL     1       1.827  -4.489   1.290  1.00  0.00    -0.291 OA
HETATM   13  O5  UNL     1      -0.758  -4.363   1.048  1.00  0.00    -0.190 OA
HETATM   14  C17 UNL     1      -2.910  -2.959   0.142  1.00  0.00     0.035 C 
ENDROOT
BRANCH   1  15
HETATM   15  O6  UNL     1      -2.384  -0.444  -0.939  1.00  0.00    -0.304 OA
BRANCH  15  16
HETATM   16  C18 UNL     1      -2.656   0.751  -0.231  1.00  0.00     0.274 C 
HETATM   17  O7  UNL     1      -3.048   1.638  -1.255  1.00  0.00    -0.326 OA
HETATM   18  C19 UNL     1      -3.301   2.927  -0.776  1.00  0.00     0.184 C 
HETATM   19  C20 UNL     1      -4.471   2.885   0.201  1.00  0.00     0.215 C 
HETATM   20  C21 UNL     1      -4.240   1.883   1.321  1.00  0.00     0.220 C 
HETATM   21  O10 UNL     1      -5.650   2.534  -0.488  1.00  0.00    -0.218 OA
HETATM   22  C22 UNL     1      -3.779   0.549   0.758  1.00  0.00     0.241 C 
HETATM   23  O9  UNL     1      -3.244   2.379   2.183  1.00  0.00    -0.218 OA
HETATM   24  O8  UNL     1      -4.848  -0.072   0.084  1.00  0.00    -0.215 OA
BRANCH  18  25
HETATM   25  C23 UNL     1      -3.567   3.839  -1.967  1.00  0.00     0.214 C 
HETATM   26  O11 UNL     1      -2.387   3.983  -2.733  1.00  0.00    -0.218 OA
ENDBRANCH  18  25
ENDBRANCH  15  16
ENDBRANCH   1  15
BRANCH   9  27
HETATM   27  C11 UNL     1       4.524  -0.599   0.506  1.00  0.00     0.033 A 
HETATM   28  C12 UNL     1       5.341  -0.459   1.571  1.00  0.00     0.129 A 
HETATM   29  C13 UNL     1       6.529   0.142   1.394  1.00  0.00     0.029 A 
HETATM   30  O4  UNL     1       4.989  -0.909   2.806  1.00  0.00    -0.190 OA
HETATM   31  C14 UNL     1       6.909   0.600   0.193  1.00  0.00     0.029 A 
HETATM   32  C15 UNL     1       6.110   0.464  -0.877  1.00  0.00     0.131 A 
HETATM   33  C16 UNL     1       4.925  -0.141  -0.693  1.00  0.00     0.028 A 
HETATM   34  O3  UNL     1       6.480   0.922  -2.103  1.00  0.00    -0.190 OA
ENDBRANCH   9  27
TORSDOF 4
