REMARK  8 active torsions:
REMARK  status: ('A' for Active; 'I' for Inactive)
REMARK    1  A    between atoms: C5_5  and  C7_7 
REMARK    2  A    between atoms: C8_8  and  C9_9 
REMARK    3  A    between atoms: C9_9  and  O1_10 
REMARK    4  A    between atoms: O1_10  and  C10_11 
REMARK    5  A    between atoms: C10_11  and  C11_12 
REMARK    6  A    between atoms: C15_16  and  O3_18 
REMARK    7  A    between atoms: O3_18  and  C16_19 
REMARK    8  A    between atoms: C23_27  and  C26_31 
ROOT
HETATM    1  O3  UNL     1       1.047  -3.129   0.507  1.00  0.00    -0.304 OA
ENDROOT
BRANCH   1   2
HETATM    2  C15 UNL     1      -0.168  -3.513  -0.121  1.00  0.00     0.274 C 
HETATM    3  C14 UNL     1      -0.101  -4.996  -0.420  1.00  0.00     0.241 C 
HETATM    4  C13 UNL     1      -1.340  -5.485  -1.144  1.00  0.00     0.220 C 
HETATM    5  O9  UNL     1       1.021  -5.213  -1.239  1.00  0.00    -0.215 OA
HETATM    6  C12 UNL     1      -1.629  -4.582  -2.328  1.00  0.00     0.215 C 
HETATM    7  O10 UNL     1      -2.432  -5.474  -0.256  1.00  0.00    -0.218 OA
HETATM    8  C11 UNL     1      -1.564  -3.096  -1.986  1.00  0.00     0.181 C 
HETATM    9  O11 UNL     1      -0.695  -4.859  -3.350  1.00  0.00    -0.218 OA
HETATM   10  O2  UNL     1      -0.380  -2.773  -1.301  1.00  0.00    -0.326 OA
BRANCH   8  11
HETATM   11  C10 UNL     1      -2.826  -2.573  -1.293  1.00  0.00     0.184 C 
BRANCH  11  12
HETATM   12  O1  UNL     1      -2.868  -1.168  -1.362  1.00  0.00    -0.296 OA
BRANCH  12  13
HETATM   13  C9  UNL     1      -3.107  -0.420  -0.236  1.00  0.00     0.296 C 
HETATM   14  O12 UNL     1      -3.357  -0.980   0.805  1.00  0.00    -0.259 OA
BRANCH  13  15
HETATM   15  C8  UNL     1      -3.082   0.938  -0.334  1.00  0.00     0.068 C 
HETATM   16  C7  UNL     1      -3.184   1.927   0.575  1.00  0.00     0.005 C 
BRANCH  16  17
HETATM   17  C5  UNL     1      -3.214   2.018   1.923  1.00  0.00     0.000 A 
HETATM   18  C4  UNL     1      -3.493   3.222   2.469  1.00  0.00     0.002 A 
HETATM   19  C3  UNL     1      -3.531   3.424   3.796  1.00  0.00     0.027 A 
HETATM   20  C2  UNL     1      -3.275   2.430   4.660  1.00  0.00     0.131 A 
HETATM   21  C1  UNL     1      -2.960   1.238   4.131  1.00  0.00     0.027 A 
HETATM   22  O13 UNL     1      -3.305   2.637   6.003  1.00  0.00    -0.190 OA
HETATM   23  C6  UNL     1      -2.925   1.042   2.803  1.00  0.00     0.002 A 
ENDBRANCH  16  17
ENDBRANCH  13  15
ENDBRANCH  12  13
ENDBRANCH  11  12
ENDBRANCH   8  11
ENDBRANCH   1   2
BRANCH   1  24
HETATM   24  C16 UNL     1       1.822  -2.114  -0.007  1.00  0.00     0.093 A 
HETATM   25  C17 UNL     1       3.095  -2.353  -0.393  1.00  0.00     0.026 A 
HETATM   26  C18 UNL     1       3.897  -1.378  -0.876  1.00  0.00     0.134 A 
HETATM   27  C32 UNL     1       3.696  -3.746  -0.265  1.00  0.00     0.035 C 
HETATM   28  C19 UNL     1       3.432  -0.110  -0.932  1.00  0.00     0.082 A 
HETATM   29  O8  UNL     1       5.165  -1.732  -1.246  1.00  0.00    -0.190 OA
HETATM   30  C20 UNL     1       2.179   0.171  -0.512  1.00  0.00     0.097 A 
HETATM   31  C25 UNL     1       4.201   0.909  -1.415  1.00  0.00     0.180 C 
HETATM   32  C21 UNL     1       1.419  -0.826  -0.008  1.00  0.00     0.023 A 
HETATM   33  O4  UNL     1       1.653   1.441  -0.502  1.00  0.00    -0.329 OA
HETATM   34  C22 UNL     1       0.077  -0.422   0.574  1.00  0.00     0.035 C 
HETATM   35  C23 UNL     1       2.567   2.491  -0.372  1.00  0.00     0.153 C 
HETATM   36  C24 UNL     1       3.634   2.319  -1.441  1.00  0.00     0.104 C 
HETATM   37  O5  UNL     1       5.324   0.795  -1.850  1.00  0.00    -0.291 OA
BRANCH  35  38
HETATM   38  C26 UNL     1       1.832   3.823  -0.458  1.00  0.00     0.033 A 
HETATM   39  C27 UNL     1       1.774   4.662   0.596  1.00  0.00     0.129 A 
HETATM   40  C28 UNL     1       1.104   5.819   0.458  1.00  0.00     0.029 A 
HETATM   41  O7  UNL     1       2.363   4.369   1.788  1.00  0.00    -0.190 OA
HETATM   42  C29 UNL     1       0.504   6.151  -0.693  1.00  0.00     0.029 A 
HETATM   43  C30 UNL     1       0.547   5.326  -1.750  1.00  0.00     0.131 A 
HETATM   44  C31 UNL     1       1.211   4.168  -1.601  1.00  0.00     0.028 A 
HETATM   45  O6  UNL     1      -0.060   5.639  -2.926  1.00  0.00    -0.190 OA
ENDBRANCH  35  38
ENDBRANCH   1  24
TORSDOF 8
