REMARK  6 active torsions:
REMARK  status: ('A' for Active; 'I' for Inactive)
REMARK    1  A    between atoms: N1_9  and  C9_10 
REMARK    2  A    between atoms: C10_12  and  C14_19 
REMARK    3  A    between atoms: C22_29  and  C31_45 
REMARK    4  A    between atoms: C23_30  and  O7_33 
REMARK    5  A    between atoms: O7_33  and  C25_34 
REMARK    6  A    between atoms: C26_36  and  C30_43 
ROOT
HETATM    1  C1  UNL     1      -6.791   0.221   2.621  1.00  0.00     0.000 A 
HETATM    2  C2  UNL     1      -6.598  -0.981   2.052  1.00  0.00     0.002 A 
HETATM    3  C3  UNL     1      -5.405  -1.321   1.536  1.00  0.00     0.018 A 
HETATM    4  C4  UNL     1      -4.398  -0.434   1.590  1.00  0.00     0.065 A 
HETATM    5  C5  UNL     1      -4.606   0.761   2.161  1.00  0.00     0.013 A 
HETATM    6  C6  UNL     1      -5.787   1.111   2.685  1.00  0.00     0.001 A 
HETATM    7  C7  UNL     1      -3.442   1.417   2.091  1.00  0.00    -0.005 A 
HETATM    8  C8  UNL     1      -2.554   0.626   1.467  1.00  0.00     0.059 A 
HETATM    9  N1  UNL     1      -3.180  -0.458   1.211  1.00  0.00    -0.292 N 
HETATM   10  C15 UNL     1      -1.149   1.122   1.241  1.00  0.00     0.123 C 
HETATM   11  N2  UNL     1      -0.725   2.203   2.134  1.00  0.00    -0.313 N 
HETATM   12  C16 UNL     1      -1.642   2.571   3.209  1.00  0.00     0.109 C 
HETATM   13  C17 UNL     1      -3.068   2.747   2.660  1.00  0.00     0.052 C 
HETATM   14  C18 UNL     1       0.495   2.823   1.978  1.00  0.00     0.255 C 
HETATM   15  C19 UNL     1       1.169   2.616   0.810  1.00  0.00     0.058 C 
HETATM   16  C20 UNL     1       0.590   1.777  -0.301  1.00  0.00     0.040 C 
HETATM   17  C21 UNL     1      -0.933   1.661  -0.181  1.00  0.00     0.034 C 
HETATM   18  C22 UNL     1       1.087   2.312  -1.649  1.00  0.00     0.083 C 
HETATM   19  C23 UNL     1       2.610   2.331  -1.606  1.00  0.00     0.246 C 
HETATM   20  O6  UNL     1       3.106   3.101  -0.535  1.00  0.00    -0.303 OA
HETATM   21  C24 UNL     1       2.368   3.198   0.612  1.00  0.00     0.119 C 
HETATM   22  O13 UNL     1       0.926   3.564   2.832  1.00  0.00    -0.268 OA
ENDROOT
BRANCH  19  23
HETATM   23  O7  UNL     1       3.063   1.007  -1.417  1.00  0.00    -0.303 OA
BRANCH  23  24
HETATM   24  C25 UNL     1       4.422   0.768  -1.685  1.00  0.00     0.272 C 
HETATM   25  O8  UNL     1       4.659   0.839  -3.074  1.00  0.00    -0.326 OA
HETATM   26  C26 UNL     1       4.154  -0.204  -3.862  1.00  0.00     0.184 C 
HETATM   27  C27 UNL     1       4.520  -1.582  -3.326  1.00  0.00     0.215 C 
HETATM   28  C28 UNL     1       4.250  -1.746  -1.842  1.00  0.00     0.220 C 
HETATM   29  O11 UNL     1       5.897  -1.805  -3.547  1.00  0.00    -0.218 OA
HETATM   30  C29 UNL     1       4.834  -0.563  -1.093  1.00  0.00     0.241 C 
HETATM   31  O10 UNL     1       2.868  -1.851  -1.594  1.00  0.00    -0.218 OA
HETATM   32  O9  UNL     1       6.240  -0.649  -1.131  1.00  0.00    -0.215 OA
BRANCH  26  33
HETATM   33  C30 UNL     1       2.680  -0.015  -4.205  1.00  0.00     0.214 C 
HETATM   34  O12 UNL     1       2.355  -0.771  -5.356  1.00  0.00    -0.218 OA
ENDBRANCH  26  33
ENDBRANCH  23  24
ENDBRANCH  19  23
BRANCH  18  35
HETATM   35  C31 UNL     1       0.516   3.670  -1.984  1.00  0.00    -0.021 C 
HETATM   36  C32 UNL     1      -0.186   3.930  -3.096  1.00  0.00    -0.005 C 
ENDBRANCH  18  35
BRANCH   9  37
HETATM   37  C9  UNL     1      -2.640  -1.704   0.589  1.00  0.00     0.173 C 
HETATM   38  O1  UNL     1      -2.737  -2.820   1.459  1.00  0.00    -0.314 OA
HETATM   39  C10 UNL     1      -1.737  -2.909   2.441  1.00  0.00     0.189 C 
HETATM   40  C11 UNL     1      -0.342  -2.745   1.852  1.00  0.00     0.215 C 
HETATM   41  C12 UNL     1      -0.381  -2.850   0.344  1.00  0.00     0.223 C 
HETATM   42  O4  UNL     1       0.529  -3.751   2.315  1.00  0.00    -0.218 OA
HETATM   43  C13 UNL     1      -1.334  -1.805  -0.202  1.00  0.00     0.246 C 
HETATM   44  O3  UNL     1       0.914  -2.631  -0.163  1.00  0.00    -0.217 OA
HETATM   45  O2  UNL     1      -1.573  -2.128  -1.554  1.00  0.00    -0.212 OA
BRANCH  39  46
HETATM   46  C14 UNL     1      -2.020  -1.995   3.626  1.00  0.00     0.215 C 
HETATM   47  O5  UNL     1      -1.162  -2.323   4.700  1.00  0.00    -0.218 OA
ENDBRANCH  39  46
ENDBRANCH   9  37
TORSDOF 6
