REMARK  8 active torsions:
REMARK  status: ('A' for Active; 'I' for Inactive)
REMARK    1  A    between atoms: C10_10  and  O1_11 
REMARK    2  A    between atoms: C12_13  and  O2_15 
REMARK    3  A    between atoms: N1_21  and  C31_42 
REMARK    4  A    between atoms: C17_23  and  O7_29 
REMARK    5  A    between atoms: C20_26  and  O6_27 
REMARK    6  A    between atoms: O7_29  and  C22_30 
REMARK    7  A    between atoms: C22_30  and  C23_31 
REMARK    8  A    between atoms: C28_36  and  N2_37 
REMARK       I    between atoms: N2_37  and  C29_38 
ROOT
HETATM    1  C1  UNL     1       0.527   0.408   0.693  1.00  0.00     0.085 C 
HETATM    2  C2  UNL     1      -0.251  -0.837   0.186  1.00  0.00     0.034 C 
HETATM    3  C3  UNL     1      -0.208  -0.762  -1.352  1.00  0.00     0.007 C 
HETATM    4  C4  UNL     1       0.098   0.721  -1.631  1.00  0.00     0.062 C 
HETATM    5  C5  UNL     1       1.560   0.875  -2.088  1.00  0.00     0.161 C 
HETATM    6  C6  UNL     1       2.525   0.203  -1.103  1.00  0.00     0.202 C 
HETATM    7  C7  UNL     1       2.057   0.356   0.358  1.00  0.00     0.161 C 
HETATM    8  C8  UNL     1       2.836   1.626   0.775  1.00  0.00     0.038 C 
HETATM    9  C9  UNL     1       3.592   2.161  -0.457  1.00  0.00     0.060 C 
HETATM   10  C10 UNL     1       3.912   0.849  -1.157  1.00  0.00     0.150 C 
HETATM   11  C12 UNL     1       2.713   3.101  -1.299  1.00  0.00     0.120 C 
HETATM   12  C13 UNL     1       1.907   2.352  -2.374  1.00  0.00     0.063 C 
HETATM   13  O3  UNL     1       2.575  -0.760   1.040  1.00  0.00    -0.223 OA
HETATM   14  O4  UNL     1       2.744  -1.147  -1.429  1.00  0.00    -0.218 OA
HETATM   15  O5  UNL     1       1.671   0.191  -3.317  1.00  0.00    -0.223 OA
HETATM   16  C15 UNL     1      -0.167   1.402  -0.269  1.00  0.00     0.226 C 
HETATM   17  N1  UNL     1      -1.583   1.600   0.057  1.00  0.00     0.138 N 
HETATM   18  C16 UNL     1      -2.383   0.382  -0.045  1.00  0.00     0.278 C 
HETATM   19  C17 UNL     1      -1.722  -0.832   0.650  1.00  0.00     0.133 C 
HETATM   20  C18 UNL     1      -1.884  -0.666   2.166  1.00  0.00     0.032 C 
HETATM   21  C19 UNL     1      -0.542  -0.461   2.861  1.00  0.00     0.032 C 
HETATM   22  C20 UNL     1       0.231   0.686   2.205  1.00  0.00     0.120 C 
ENDROOT
BRANCH  19  23
HETATM   23  O7  UNL     1      -2.401  -1.973   0.203  1.00  0.00    -0.301 OA
BRANCH  23  24
HETATM   24  C22 UNL     1      -2.019  -3.258   0.488  1.00  0.00     0.297 C 
HETATM   25  O9  UNL     1      -2.554  -4.186  -0.107  1.00  0.00    -0.259 OA
BRANCH  24  26
HETATM   26  C23 UNL     1      -0.881  -3.707   1.395  1.00  0.00     0.081 A 
HETATM   27  C24 UNL     1      -1.069  -3.816   2.773  1.00  0.00     0.007 A 
HETATM   28  C25 UNL     1       0.012  -4.151   3.591  1.00  0.00     0.000 A 
HETATM   29  C26 UNL     1       1.266  -4.379   3.023  1.00  0.00     0.002 A 
HETATM   30  C27 UNL     1       1.431  -4.338   1.636  1.00  0.00     0.019 A 
HETATM   31  C28 UNL     1       0.345  -4.045   0.806  1.00  0.00     0.089 A 
BRANCH  31  32
HETATM   32  N2  UNL     1       0.368  -4.006  -0.540  1.00  0.00    -0.212 NA
HETATM   33  C29 UNL     1       1.436  -3.961  -1.384  1.00  0.00     0.256 C 
HETATM   34  C30 UNL     1       1.085  -4.151  -2.846  1.00  0.00     0.100 C 
HETATM   35  O8  UNL     1       2.559  -3.731  -1.005  1.00  0.00    -0.270 OA
ENDBRANCH  31  32
ENDBRANCH  24  26
ENDBRANCH  23  24
ENDBRANCH  19  23
BRANCH  17  36
HETATM   36  C31 UNL     1      -2.217   2.675  -0.706  1.00  0.00     0.250 C 
HETATM   37  C32 UNL     1      -1.555   4.053  -0.538  1.00  0.00     0.037 C 
ENDBRANCH  17  36
BRANCH  22  38
HETATM   38  O6  UNL     1       1.389   0.879   2.975  1.00  0.00    -0.354 OA
HETATM   39  C21 UNL     1       1.226   1.780   4.052  1.00  0.00     0.174 C 
ENDBRANCH  22  38
BRANCH  10  40
HETATM   40  O1  UNL     1       4.415   1.054  -2.446  1.00  0.00    -0.351 OA
HETATM   41  C11 UNL     1       5.232   0.008  -2.923  1.00  0.00     0.174 C 
ENDBRANCH  10  40
BRANCH  11  42
HETATM   42  O2  UNL     1       3.493   4.081  -1.942  1.00  0.00    -0.354 OA
HETATM   43  C14 UNL     1       3.839   5.170  -1.110  1.00  0.00     0.174 C 
ENDBRANCH  11  42
TORSDOF 8
