REMARK  2 active torsions:
REMARK  status: ('A' for Active; 'I' for Inactive)
REMARK    1  A    between atoms: C11_11  and  O1_12 
REMARK    2  A    between atoms: C19_22  and  O3_24 
ROOT
HETATM    1  C1  UNL     1       3.261  -1.462   0.197  1.00  0.00     0.051 C 
HETATM    2  C2  UNL     1       3.533  -0.172  -0.811  1.00  0.00     0.133 C 
HETATM    3  C3  UNL     1       2.799   1.241  -0.548  1.00  0.00     0.059 C 
HETATM    4  C4  UNL     1       1.372   1.172   0.175  1.00  0.00     0.009 C 
HETATM    5  C5  UNL     1       1.018   0.005   1.220  1.00  0.00     0.046 C 
HETATM    6  C6  UNL     1       1.699  -0.917   2.239  1.00  0.00     0.009 C 
HETATM    7  C7  UNL     1       2.952  -1.833   1.708  1.00  0.00     0.005 C 
HETATM    8  C8  UNL     1       1.788   0.294   3.234  1.00  0.00     0.036 C 
HETATM    9  C9  UNL     1       0.879  -0.435   4.215  1.00  0.00     0.008 C 
HETATM   10  C10 UNL     1      -0.478  -0.438   3.366  1.00  0.00     0.030 C 
HETATM   11  C11 UNL     1      -0.416  -0.195   1.774  1.00  0.00     0.117 C 
HETATM   12  C13 UNL     1       1.348   1.780   3.195  1.00  0.00     0.006 C 
HETATM   13  C14 UNL     1       3.125   0.345   2.594  1.00  0.00     0.066 C 
HETATM   14  N1  UNL     1       3.179   0.168   1.325  1.00  0.00    -0.276 NA
HETATM   15  C15 UNL     1       1.895  -0.886   0.416  1.00  0.00     0.107 C 
HETATM   16  C16 UNL     1       0.447   1.156  -1.089  1.00  0.00     0.005 C 
HETATM   17  C17 UNL     1       1.356   1.220  -2.351  1.00  0.00     0.058 C 
HETATM   18  C18 UNL     1       2.508   2.046  -1.810  1.00  0.00     0.157 C 
HETATM   19  O2  UNL     1       3.623   2.153  -2.659  1.00  0.00    -0.223 OA
HETATM   20  C19 UNL     1       1.867  -0.141  -2.877  1.00  0.00     0.120 C 
HETATM   21  C20 UNL     1       3.227  -0.583  -2.282  1.00  0.00     0.060 C 
HETATM   22  O4  UNL     1       4.915   0.077  -0.747  1.00  0.00    -0.226 OA
ENDROOT
BRANCH  11  23
HETATM   23  O1  UNL     1      -1.009  -1.254   1.073  1.00  0.00    -0.354 OA
HETATM   24  C12 UNL     1      -2.420  -1.213   1.091  1.00  0.00     0.174 C 
ENDBRANCH  11  23
BRANCH  20  25
HETATM   25  O3  UNL     1       1.939  -0.041  -4.281  1.00  0.00    -0.354 OA
HETATM   26  C21 UNL     1       2.183  -1.267  -4.939  1.00  0.00     0.174 C 
ENDBRANCH  20  25
TORSDOF 2
