REMARK  1 active torsions:
REMARK  status: ('A' for Active; 'I' for Inactive)
REMARK    1  A    between atoms: N1_9  and  C17_18 
ROOT
HETATM    1  C1  UNL     1      -0.682  -2.829   0.137  1.00  0.00     0.119 A 
HETATM    2  C2  UNL     1       0.476  -2.160   0.065  1.00  0.00     0.119 A 
HETATM    3  C3  UNL     1       0.525  -0.813  -0.053  1.00  0.00     0.021 A 
HETATM    4  C4  UNL     1      -0.685  -0.197  -0.156  1.00  0.00    -0.004 A 
HETATM    5  C5  UNL     1      -1.852  -0.874  -0.077  1.00  0.00    -0.020 A 
HETATM    6  C6  UNL     1      -1.859  -2.206   0.077  1.00  0.00     0.022 A 
HETATM    7  C7  UNL     1      -3.176  -0.154  -0.125  1.00  0.00     0.050 C 
HETATM    8  C8  UNL     1      -2.999   1.236   0.485  1.00  0.00     0.110 C 
HETATM    9  N1  UNL     1      -2.023   1.940  -0.327  1.00  0.00    -0.310 N 
HETATM   10  C9  UNL     1      -0.718   1.294  -0.457  1.00  0.00     0.111 C 
HETATM   11  C10 UNL     1       0.328   1.955   0.431  1.00  0.00     0.053 C 
HETATM   12  C11 UNL     1       1.636   1.256   0.162  1.00  0.00    -0.020 A 
HETATM   13  C12 UNL     1       1.675  -0.081  -0.057  1.00  0.00    -0.002 A 
HETATM   14  C13 UNL     1       2.912  -0.595  -0.233  1.00  0.00    -0.000 A 
HETATM   15  C14 UNL     1       4.033   0.144  -0.211  1.00  0.00    -0.000 A 
HETATM   16  C15 UNL     1       3.961   1.462   0.002  1.00  0.00    -0.000 A 
HETATM   17  C16 UNL     1       2.753   2.006   0.190  1.00  0.00    -0.004 A 
HETATM   18  O2  UNL     1       1.407  -2.961   0.169  1.00  0.00    -0.300 OA
HETATM   19  C18 UNL     1       0.871  -4.273   0.332  1.00  0.00     0.304 A 
HETATM   20  O3  UNL     1      -0.528  -4.038   0.279  1.00  0.00    -0.300 OA
ENDROOT
BRANCH   9  21
HETATM   21  C17 UNL     1      -2.298   3.138  -0.932  1.00  0.00     0.313 C 
HETATM   22  O1  UNL     1      -1.490   3.720  -1.614  1.00  0.00    -0.262 OA
ENDBRANCH   9  21
TORSDOF 1
