REMARK  4 active torsions:
REMARK  status: ('A' for Active; 'I' for Inactive)
REMARK    1  A    between atoms: C5_5  and  C7_7 
REMARK    2  A    between atoms: C7_7  and  C8_8 
REMARK    3  A    between atoms: C8_8  and  C9_9 
REMARK    4  A    between atoms: C8_8  and  N1_12 
ROOT
HETATM    1  C7  UNL     1      -0.256   0.944  -0.562  1.00  0.00     0.061 C 
ENDROOT
BRANCH   1   2
HETATM    2  C5  UNL     1       1.102   0.709   0.076  1.00  0.00    -0.020 A 
HETATM    3  C4  UNL     1       1.566  -0.508   0.414  1.00  0.00    -0.004 A 
HETATM    4  C3  UNL     1       2.777  -0.661   0.973  1.00  0.00    -0.000 A 
HETATM    5  C2  UNL     1       3.555   0.407   1.200  1.00  0.00    -0.000 A 
HETATM    6  C1  UNL     1       3.112   1.627   0.866  1.00  0.00    -0.000 A 
HETATM    7  C6  UNL     1       1.899   1.769   0.311  1.00  0.00    -0.004 A 
ENDBRANCH   1   2
BRANCH   1   8
HETATM    8  C8  UNL     1      -1.256  -0.229  -0.581  1.00  0.00     0.189 C 
BRANCH   8   9
HETATM    9  C9  UNL     1      -1.599  -0.685   0.830  1.00  0.00     0.208 C 
HETATM   10  O1  UNL     1      -1.726  -2.022   0.910  1.00  0.00    -0.646 OA
HETATM   11  O2  UNL     1      -1.719   0.015   1.807  1.00  0.00    -0.646 OA
ENDBRANCH   8   9
BRANCH   8  12
HETATM   12  N1  UNL     1      -2.469   0.216  -1.276  1.00  0.00    -0.284 NA
HETATM   13  C10 UNL     1      -3.422  -0.846  -1.589  1.00  0.00     0.146 C 
ENDBRANCH   8  12
ENDBRANCH   1   8
TORSDOF 4
