REMARK  13 active torsions:
REMARK  status: ('A' for Active; 'I' for Inactive)
REMARK    1  A    between atoms: S1_2  and  C2_3 
REMARK    2  A    between atoms: C3_4  and  C4_5 
REMARK       I    between atoms: C4_5  and  N1_6 
REMARK    3  A    between atoms: N1_6  and  C5_7 
REMARK    4  A    between atoms: C5_7  and  C6_8 
REMARK    5  A    between atoms: C6_8  and  C7_9 
REMARK    6  A    between atoms: C9_11  and  O3_27 
REMARK    7  A    between atoms: C10_12  and  O1_15 
REMARK    8  A    between atoms: O1_15  and  C13_16 
REMARK    9  A    between atoms: C13_16  and  C14_17 
REMARK   10  A    between atoms: C15_18  and  C16_19 
REMARK   11  A    between atoms: C16_19  and  C17_20 
REMARK   12  A    between atoms: C17_20  and  C18_21 
REMARK   13  A    between atoms: C19_22  and  C20_23 
ROOT
HETATM    1  C7  UNL     1       1.361   2.114  -0.789  1.00  0.00    -0.018 A 
HETATM    2  C8  UNL     1       1.857   0.895  -0.516  1.00  0.00     0.022 A 
HETATM    3  C9  UNL     1       1.090  -0.173  -0.216  1.00  0.00     0.116 A 
HETATM    4  C10 UNL     1      -0.256  -0.018  -0.193  1.00  0.00     0.117 A 
HETATM    5  C11 UNL     1      -0.759   1.204  -0.455  1.00  0.00     0.026 A 
HETATM    6  C12 UNL     1       0.027   2.249  -0.747  1.00  0.00    -0.002 A 
ENDROOT
BRANCH   4   7
HETATM    7  O1  UNL     1      -1.021  -1.124   0.103  1.00  0.00    -0.324 OA
BRANCH   7   8
HETATM    8  C13 UNL     1      -2.430  -1.012   0.139  1.00  0.00     0.174 C 
BRANCH   8   9
HETATM    9  C14 UNL     1      -3.051  -2.345   0.484  1.00  0.00    -0.002 C 
HETATM   10  C15 UNL     1      -4.370  -2.582   0.603  1.00  0.00    -0.045 C 
HETATM   11  C22 UNL     1      -5.415  -1.510   0.385  1.00  0.00     0.026 C 
BRANCH  10  12
HETATM   12  C16 UNL     1      -4.949  -3.938   0.963  1.00  0.00     0.026 C 
BRANCH  12  13
HETATM   13  C17 UNL     1      -3.949  -5.064   1.274  1.00  0.00     0.030 C 
BRANCH  13  14
HETATM   14  C18 UNL     1      -4.628  -6.351   1.677  1.00  0.00    -0.032 C 
HETATM   15  C19 UNL     1      -4.022  -7.406   2.252  1.00  0.00    -0.015 C 
HETATM   16  C21 UNL     1      -2.545  -7.459   2.565  1.00  0.00     0.029 C 
BRANCH  15  17
HETATM   17  C20 UNL     1      -4.804  -8.638   2.647  1.00  0.00     0.204 C 
HETATM   18  O2  UNL     1      -4.284  -9.806   2.025  1.00  0.00    -0.216 OA
ENDBRANCH  15  17
ENDBRANCH  13  14
ENDBRANCH  12  13
ENDBRANCH  10  12
ENDBRANCH   8   9
ENDBRANCH   7   8
ENDBRANCH   4   7
BRANCH   3  19
HETATM   19  O3  UNL     1       1.587  -1.431   0.045  1.00  0.00    -0.326 OA
HETATM   20  C23 UNL     1       2.966  -1.678  -0.112  1.00  0.00     0.181 C 
ENDBRANCH   3  19
BRANCH   1  21
HETATM   21  C6  UNL     1       2.212   3.319  -1.148  1.00  0.00     0.053 C 
BRANCH  21  22
HETATM   22  C5  UNL     1       3.740   3.154  -1.090  1.00  0.00     0.134 C 
BRANCH  22  23
HETATM   23  N1  UNL     1       4.418   4.335  -1.632  1.00  0.00    -0.234 NA
HETATM   24  C4  UNL     1       4.548   5.503  -0.937  1.00  0.00     0.276 C 
HETATM   25  O4  UNL     1       4.128   5.646   0.187  1.00  0.00    -0.266 OA
BRANCH  24  26
HETATM   26  C3  UNL     1       5.181   6.471  -1.648  1.00  0.00     0.074 C 
HETATM   27  C2  UNL     1       5.392   7.709  -1.171  1.00  0.00     0.099 C 
BRANCH  27  28
HETATM   28  S1  UNL     1       6.231   8.956  -2.147  1.00  0.00     0.192 S 
HETATM   29  C1  UNL     1       5.707  10.578  -1.604  1.00  0.00     0.145 C 
HETATM   30  O5  UNL     1       5.827   8.820  -3.534  1.00  0.00    -0.222 OA
HETATM   31  O6  UNL     1       7.656   8.849  -1.893  1.00  0.00    -0.222 OA
ENDBRANCH  27  28
ENDBRANCH  24  26
ENDBRANCH  22  23
ENDBRANCH  21  22
ENDBRANCH   1  21
TORSDOF 13
