REMARK  3 active torsions:
REMARK  status: ('A' for Active; 'I' for Inactive)
REMARK    1  A    between atoms: C2_2  and  O4_25 
REMARK    2  A    between atoms: C13_13  and  O1_15 
REMARK    3  A    between atoms: O4_25  and  C22_26 
ROOT
HETATM    1  C1  UNL     1      -2.429   1.819   0.888  1.00  0.00     0.031 C 
HETATM    2  C2  UNL     1      -2.872   0.396   1.227  1.00  0.00     0.128 C 
HETATM    3  C3  UNL     1      -2.245  -0.668   0.288  1.00  0.00     0.041 C 
HETATM    4  C4  UNL     1      -0.690  -0.468   0.127  1.00  0.00    -0.038 C 
HETATM    5  C5  UNL     1      -0.186   1.006  -0.068  1.00  0.00     0.067 C 
HETATM    6  C6  UNL     1      -0.904   1.937   0.945  1.00  0.00     0.013 C 
HETATM    7  C7  UNL     1       1.293   1.168   0.355  1.00  0.00     0.153 C 
HETATM    8  C8  UNL     1       2.181   2.287  -0.185  1.00  0.00     0.066 C 
HETATM    9  C9  UNL     1       3.684   1.948  -0.307  1.00  0.00     0.017 C 
HETATM   10  C10 UNL     1       4.027   0.660  -1.083  1.00  0.00     0.048 C 
HETATM   11  C11 UNL     1       2.838   0.170  -1.859  1.00  0.00    -0.020 C 
HETATM   12  C12 UNL     1       2.307  -0.943  -1.335  1.00  0.00     0.043 C 
HETATM   13  C13 UNL     1       1.012  -1.593  -1.757  1.00  0.00     0.162 C 
HETATM   14  C14 UNL     1      -0.019  -1.675  -0.615  1.00  0.00    -0.001 C 
HETATM   15  C16 UNL     1       3.119  -1.414  -0.355  1.00  0.00     0.190 C 
HETATM   16  C17 UNL     1       4.154  -0.553  -0.189  1.00  0.00     0.020 C 
HETATM   17  C18 UNL     1       5.147  -0.755   0.688  1.00  0.00    -0.001 C 
HETATM   18  O2  UNL     1       2.944  -2.444   0.252  1.00  0.00    -0.287 OA
HETATM   19  O3  UNL     1       1.762   0.455   1.214  1.00  0.00    -0.296 OA
HETATM   20  C19 UNL     1      -0.433   1.567  -1.482  1.00  0.00     0.011 C 
HETATM   21  C20 UNL     1      -2.556  -2.065   0.907  1.00  0.00     0.006 C 
HETATM   22  C21 UNL     1      -3.016  -0.638  -1.057  1.00  0.00     0.006 C 
ENDROOT
BRANCH   2  23
HETATM   23  O4  UNL     1      -2.553   0.110   2.562  1.00  0.00    -0.304 OA
BRANCH  23  24
HETATM   24  C22 UNL     1      -3.380   0.576   3.537  1.00  0.00     0.272 C 
HETATM   25  C23 UNL     1      -2.880   0.138   4.899  1.00  0.00     0.106 C 
HETATM   26  O5  UNL     1      -4.378   1.236   3.354  1.00  0.00    -0.264 OA
ENDBRANCH  23  24
ENDBRANCH   2  23
BRANCH  13  27
HETATM   27  O1  UNL     1       0.444  -0.996  -2.901  1.00  0.00    -0.345 OA
HETATM   28  C15 UNL     1      -0.151  -1.911  -3.796  1.00  0.00     0.175 C 
ENDBRANCH  13  27
TORSDOF 3
