REMARK  4 active torsions:
REMARK  status: ('A' for Active; 'I' for Inactive)
REMARK    1  A    between atoms: C4_5  and  O2_9 
REMARK    2  A    between atoms: C5_6  and  O1_7 
REMARK    3  A    between atoms: C17_20  and  C18_21 
REMARK    4  A    between atoms: C19_22  and  O3_27 
ROOT
HETATM    1  C1  UNL     1       1.726  -0.203   0.346  1.00  0.00     0.040 A 
HETATM    2  C2  UNL     1       1.857  -1.547   0.267  1.00  0.00     0.083 A 
HETATM    3  N1  UNL     1       2.974  -2.139   0.244  1.00  0.00    -0.248 NA
HETATM    4  C3  UNL     1       4.046  -1.477   0.250  1.00  0.00     0.084 C 
HETATM    5  C4  UNL     1       4.061  -0.134   0.333  1.00  0.00     0.130 C 
HETATM    6  C5  UNL     1       2.877   0.507   0.493  1.00  0.00     0.119 C 
HETATM    7  C8  UNL     1       5.298  -2.322   0.184  1.00  0.00     0.054 C 
HETATM    8  C9  UNL     1       0.789  -2.360   0.230  1.00  0.00     0.019 A 
HETATM    9  C10 UNL     1      -0.442  -1.846   0.260  1.00  0.00    -0.000 A 
HETATM   10  C11 UNL     1      -0.604  -0.516   0.282  1.00  0.00     0.010 A 
HETATM   11  C12 UNL     1       0.466   0.310   0.296  1.00  0.00     0.007 A 
HETATM   12  C13 UNL     1       0.124   1.799   0.228  1.00  0.00     0.138 C 
HETATM   13  C14 UNL     1      -0.164   2.342   1.625  1.00  0.00     0.037 C 
HETATM   14  C15 UNL     1      -1.676   2.114   1.752  1.00  0.00     0.036 C 
HETATM   15  C16 UNL     1      -2.062   1.533   0.387  1.00  0.00     0.151 C 
HETATM   16  C17 UNL     1      -2.031   0.011   0.276  1.00  0.00     0.190 C 
HETATM   17  O4  UNL     1      -2.660  -0.529   1.429  1.00  0.00    -0.214 OA
HETATM   18  O5  UNL     1      -1.080   2.020  -0.470  1.00  0.00    -0.352 OA
ENDROOT
BRANCH  16  19
HETATM   19  C18 UNL     1      -2.742  -0.452  -1.005  1.00  0.00     0.034 A 
HETATM   20  C19 UNL     1      -4.035  -0.864  -1.007  1.00  0.00     0.093 A 
HETATM   21  C20 UNL     1      -4.567  -1.234  -2.192  1.00  0.00     0.024 A 
HETATM   22  C21 UNL     1      -3.874  -1.217  -3.338  1.00  0.00     0.002 A 
HETATM   23  C22 UNL     1      -2.602  -0.805  -3.328  1.00  0.00    -0.000 A 
HETATM   24  C23 UNL     1      -2.056  -0.425  -2.166  1.00  0.00     0.000 A 
BRANCH  20  25
HETATM   25  O3  UNL     1      -4.751  -0.870   0.166  1.00  0.00    -0.328 OA
HETATM   26  C24 UNL     1      -6.132  -1.143   0.146  1.00  0.00     0.181 C 
ENDBRANCH  20  25
ENDBRANCH  16  19
BRANCH   6  27
HETATM   27  O1  UNL     1       2.899   1.870   0.666  1.00  0.00    -0.326 OA
HETATM   28  C6  UNL     1       3.263   2.305   1.959  1.00  0.00     0.181 C 
ENDBRANCH   6  27
BRANCH   5  29
HETATM   29  O2  UNL     1       5.260   0.528   0.437  1.00  0.00    -0.325 OA
HETATM   30  C7  UNL     1       5.699   1.115  -0.768  1.00  0.00     0.181 C 
ENDBRANCH   5  29
TORSDOF 4
