REMARK  3 active torsions:
REMARK  status: ('A' for Active; 'I' for Inactive)
REMARK    1  A    between atoms: C1_1  and  O3_21 
REMARK    2  A    between atoms: C2_2  and  O2_19 
REMARK    3  A    between atoms: C13_14  and  O1_17 
ROOT
HETATM    1  C1  UNL     1      -2.922  -0.206  -0.213  1.00  0.00     0.116 A 
HETATM    2  C2  UNL     1      -2.896  -1.559  -0.248  1.00  0.00     0.116 A 
HETATM    3  C3  UNL     1      -1.697  -2.163  -0.358  1.00  0.00     0.024 A 
HETATM    4  C4  UNL     1      -0.536  -1.492  -0.423  1.00  0.00     0.009 A 
HETATM    5  C5  UNL     1      -0.554  -0.149  -0.367  1.00  0.00    -0.017 A 
HETATM    6  C6  UNL     1      -1.750   0.457  -0.282  1.00  0.00     0.022 A 
HETATM    7  C7  UNL     1       0.765   0.602  -0.507  1.00  0.00     0.069 C 
HETATM    8  C8  UNL     1       1.868  -0.273   0.115  1.00  0.00     0.230 C 
HETATM    9  N1  UNL     1       1.909  -1.394  -0.809  1.00  0.00     0.140 N 
HETATM   10  C9  UNL     1       0.764  -2.261  -0.560  1.00  0.00     0.276 C 
HETATM   11  C10 UNL     1       1.866  -0.799  -2.140  1.00  0.00     0.251 C 
HETATM   12  C11 UNL     1       1.133   0.548  -2.004  1.00  0.00     0.045 C 
HETATM   13  C12 UNL     1       3.203   0.483   0.226  1.00  0.00     0.068 C 
HETATM   14  C13 UNL     1       3.050   1.685   1.164  1.00  0.00     0.139 C 
HETATM   15  C14 UNL     1       1.846   2.498   0.748  1.00  0.00    -0.001 C 
HETATM   16  C15 UNL     1       0.823   2.013   0.026  1.00  0.00    -0.023 C 
ENDROOT
BRANCH   1  17
HETATM   17  O3  UNL     1      -4.154   0.405  -0.132  1.00  0.00    -0.326 OA
HETATM   18  C18 UNL     1      -4.235   1.811  -0.182  1.00  0.00     0.181 C 
ENDBRANCH   1  17
BRANCH   2  19
HETATM   19  O2  UNL     1      -4.099  -2.229  -0.201  1.00  0.00    -0.326 OA
HETATM   20  C17 UNL     1      -4.115  -3.627  -0.379  1.00  0.00     0.181 C 
ENDBRANCH   2  19
BRANCH  14  21
HETATM   21  O1  UNL     1       2.948   1.216   2.491  1.00  0.00    -0.350 OA
HETATM   22  C16 UNL     1       3.035   2.240   3.459  1.00  0.00     0.175 C 
ENDBRANCH  14  21
TORSDOF 3
