REMARK  9 active torsions:
REMARK  status: ('A' for Active; 'I' for Inactive)
REMARK    1  A    between atoms: S1_2  and  C2_3 
REMARK    2  A    between atoms: C3_4  and  C4_5 
REMARK       I    between atoms: C4_5  and  N1_6 
REMARK    3  A    between atoms: N1_6  and  C5_7 
REMARK    4  A    between atoms: C5_7  and  C6_8 
REMARK    5  A    between atoms: C6_8  and  C7_9 
REMARK    6  A    between atoms: C9_11  and  O2_21 
REMARK    7  A    between atoms: C10_12  and  O1_15 
REMARK    8  A    between atoms: O1_15  and  C13_16 
REMARK    9  A    between atoms: C13_16  and  C14_17 
ROOT
HETATM    1  C7  UNL     1       0.373  -0.091   0.042  1.00  0.00    -0.018 A 
HETATM    2  C8  UNL     1       0.850  -1.330   0.247  1.00  0.00     0.022 A 
HETATM    3  C9  UNL     1       0.064  -2.393   0.524  1.00  0.00     0.116 A 
HETATM    4  C10 UNL     1      -1.279  -2.213   0.578  1.00  0.00     0.117 A 
HETATM    5  C11 UNL     1      -1.759  -0.972   0.370  1.00  0.00     0.026 A 
HETATM    6  C12 UNL     1      -0.958   0.068   0.110  1.00  0.00    -0.002 A 
ENDROOT
BRANCH   1   7
HETATM    7  C6  UNL     1       1.227   1.128  -0.253  1.00  0.00     0.053 C 
BRANCH   7   8
HETATM    8  C5  UNL     1       2.750   0.949  -0.334  1.00  0.00     0.134 C 
BRANCH   8   9
HETATM    9  N1  UNL     1       3.548   2.124  -0.721  1.00  0.00    -0.234 NA
HETATM   10  C4  UNL     1       3.106   3.421  -0.725  1.00  0.00     0.276 C 
HETATM   11  O3  UNL     1       1.984   3.757  -0.431  1.00  0.00    -0.266 OA
BRANCH  10  12
HETATM   12  C3  UNL     1       4.059   4.314  -1.097  1.00  0.00     0.074 C 
HETATM   13  C2  UNL     1       3.816   5.633  -1.170  1.00  0.00     0.099 C 
BRANCH  13  14
HETATM   14  S1  UNL     1       5.083   6.803  -1.658  1.00  0.00     0.192 S 
HETATM   15  C1  UNL     1       4.360   8.438  -1.736  1.00  0.00     0.145 C 
HETATM   16  O4  UNL     1       5.538   6.462  -2.993  1.00  0.00    -0.222 OA
HETATM   17  O5  UNL     1       6.106   6.826  -0.627  1.00  0.00    -0.222 OA
ENDBRANCH  13  14
ENDBRANCH  10  12
ENDBRANCH   8   9
ENDBRANCH   7   8
ENDBRANCH   1   7
BRANCH   3  18
HETATM   18  O2  UNL     1       0.540  -3.671   0.718  1.00  0.00    -0.326 OA
HETATM   19  C18 UNL     1       1.879  -3.965   0.391  1.00  0.00     0.181 C 
ENDBRANCH   3  18
BRANCH   4  20
HETATM   20  O1  UNL     1      -2.071  -3.308   0.847  1.00  0.00    -0.324 OA
BRANCH  20  21
HETATM   21  C13 UNL     1      -3.473  -3.138   0.914  1.00  0.00     0.174 C 
BRANCH  21  22
HETATM   22  C14 UNL     1      -4.170  -4.437   1.236  1.00  0.00    -0.002 C 
HETATM   23  C15 UNL     1      -5.505  -4.600   1.273  1.00  0.00    -0.045 C 
HETATM   24  C16 UNL     1      -6.128  -5.934   1.610  1.00  0.00     0.026 C 
HETATM   25  C17 UNL     1      -6.493  -3.492   0.994  1.00  0.00     0.026 C 
ENDBRANCH  21  22
ENDBRANCH  20  21
ENDBRANCH   4  20
TORSDOF 9
