REMARK  4 active torsions:
REMARK  status: ('A' for Active; 'I' for Inactive)
REMARK    1  A    between atoms: C4_5  and  O1_6 
REMARK    2  A    between atoms: O1_6  and  C5_7 
REMARK    3  A    between atoms: C5_7  and  C6_8 
REMARK    4  A    between atoms: C10_13  and  C13_16 
ROOT
HETATM    1  C1  UNL     1      -2.627  -0.831  -0.709  1.00  0.00     0.068 C 
HETATM    2  C2  UNL     1      -2.188  -1.859  -1.790  1.00  0.00     0.254 C 
HETATM    3  N1  UNL     1      -0.774  -1.601  -1.827  1.00  0.00     0.146 N 
HETATM    4  C3  UNL     1      -0.656  -0.160  -1.791  1.00  0.00     0.268 C 
HETATM    5  C4  UNL     1      -1.419   0.121  -0.503  1.00  0.00     0.162 C 
HETATM    6  C10 UNL     1       0.798   0.061  -2.068  1.00  0.00     0.019 C 
HETATM    7  C11 UNL     1       1.225  -1.003  -2.770  1.00  0.00     0.005 C 
HETATM    8  C12 UNL     1       0.104  -2.016  -2.896  1.00  0.00     0.276 C 
ENDROOT
BRANCH   5   9
HETATM    9  O1  UNL     1      -0.647  -0.299   0.586  1.00  0.00    -0.299 OA
BRANCH   9  10
HETATM   10  C5  UNL     1      -0.409   0.550   1.633  1.00  0.00     0.291 C 
HETATM   11  O2  UNL     1      -1.090   1.544   1.761  1.00  0.00    -0.260 OA
BRANCH  10  12
HETATM   12  C6  UNL     1       0.632   0.305   2.481  1.00  0.00     0.037 C 
HETATM   13  C7  UNL     1       0.953   1.114   3.509  1.00  0.00    -0.025 C 
HETATM   14  C8  UNL     1       0.285   2.399   3.925  1.00  0.00     0.030 C 
HETATM   15  C9  UNL     1       1.451  -0.946   2.228  1.00  0.00     0.036 C 
ENDBRANCH  10  12
ENDBRANCH   9  10
ENDBRANCH   5   9
BRANCH   6  16
HETATM   16  C13 UNL     1       1.539   1.326  -1.770  1.00  0.00     0.206 C 
HETATM   17  O3  UNL     1       1.452   1.650  -0.390  1.00  0.00    -0.216 OA
ENDBRANCH   6  16
TORSDOF 4
