REMARK  4 active torsions:
REMARK  status: ('A' for Active; 'I' for Inactive)
REMARK    1  A    between atoms: C5_7  and  C8_10 
REMARK    2  A    between atoms: C8_10  and  O2_11 
REMARK    3  A    between atoms: O2_11  and  C9_12 
REMARK    4  A    between atoms: C9_12  and  C10_14 
ROOT
HETATM    1  C1  UNL     1      -3.388  -2.049   0.244  1.00  0.00     0.071 C 
HETATM    2  C2  UNL     1      -2.972  -2.768  -1.069  1.00  0.00     0.254 C 
HETATM    3  N1  UNL     1      -1.574  -2.435  -1.099  1.00  0.00     0.146 N 
HETATM    4  C3  UNL     1      -1.519  -1.027  -0.781  1.00  0.00     0.270 C 
HETATM    5  C4  UNL     1      -2.287  -0.999   0.526  1.00  0.00     0.189 C 
HETATM    6  O1  UNL     1      -1.454  -1.408   1.583  1.00  0.00    -0.221 OA
HETATM    7  C5  UNL     1      -0.077  -0.703  -1.005  1.00  0.00     0.017 C 
HETATM    8  C6  UNL     1       0.371  -1.563  -1.937  1.00  0.00     0.005 C 
HETATM    9  C7  UNL     1      -0.722  -2.567  -2.260  1.00  0.00     0.276 C 
ENDROOT
BRANCH   7  10
HETATM   10  C8  UNL     1       0.628   0.424  -0.315  1.00  0.00     0.176 C 
BRANCH  10  11
HETATM   11  O2  UNL     1       1.872   0.702  -0.884  1.00  0.00    -0.294 OA
BRANCH  11  12
HETATM   12  C9  UNL     1       2.769   1.633  -0.426  1.00  0.00     0.292 C 
HETATM   13  O3  UNL     1       3.754   1.716  -1.139  1.00  0.00    -0.260 OA
BRANCH  12  14
HETATM   14  C10 UNL     1       2.814   2.489   0.648  1.00  0.00     0.037 C 
HETATM   15  C11 UNL     1       4.080   3.358   0.693  1.00  0.00     0.036 C 
HETATM   16  C12 UNL     1       1.958   2.703   1.672  1.00  0.00    -0.025 C 
HETATM   17  C13 UNL     1       0.635   2.148   2.120  1.00  0.00     0.030 C 
ENDBRANCH  12  14
ENDBRANCH  11  12
ENDBRANCH  10  11
ENDBRANCH   7  10
TORSDOF 4
