REMARK  1 active torsions:
REMARK  status: ('A' for Active; 'I' for Inactive)
REMARK    1  A    between atoms: C12_13  and  C15_17 
ROOT
HETATM    1  C1  UNL     1      -1.554  -0.636  -2.096  1.00  0.00     0.097 C 
HETATM    2  C2  UNL     1      -2.268  -1.237  -0.905  1.00  0.00     0.152 C 
HETATM    3  C3  UNL     1      -1.366  -1.974   0.081  1.00  0.00     0.052 C 
HETATM    4  C4  UNL     1       0.056  -1.339   0.037  1.00  0.00     0.009 C 
HETATM    5  C5  UNL     1       0.131   0.188  -0.289  1.00  0.00     0.036 C 
HETATM    6  C6  UNL     1      -0.570   0.447  -1.657  1.00  0.00     0.160 C 
HETATM    7  O1  UNL     1      -1.268   1.673  -1.659  1.00  0.00    -0.223 OA
HETATM    8  C7  UNL     1       1.640   0.610  -0.392  1.00  0.00     0.065 C 
HETATM    9  C8  UNL     1       2.493   0.169   0.809  1.00  0.00     0.011 C 
HETATM   10  C9  UNL     1       2.371  -1.339   1.065  1.00  0.00     0.001 C 
HETATM   11  C10 UNL     1       0.907  -1.740   1.258  1.00  0.00     0.001 C 
HETATM   12  C11 UNL     1       3.962   0.612   0.662  1.00  0.00     0.023 C 
HETATM   13  C12 UNL     1       4.040   2.104   0.382  1.00  0.00    -0.020 C 
HETATM   14  C13 UNL     1       3.027   2.706  -0.268  1.00  0.00     0.033 C 
HETATM   15  C14 UNL     1       1.891   2.090  -0.686  1.00  0.00     0.172 C 
HETATM   16  O2  UNL     1       1.075   2.741  -1.298  1.00  0.00    -0.291 OA
HETATM   17  C17 UNL     1       4.768  -0.131  -0.420  1.00  0.00     0.005 C 
HETATM   18  C18 UNL     1      -0.556   1.012   0.826  1.00  0.00     0.003 C 
HETATM   19  C19 UNL     1      -2.027  -1.984   1.477  1.00  0.00     0.007 C 
HETATM   20  C20 UNL     1      -1.324  -3.446  -0.403  1.00  0.00     0.007 C 
HETATM   21  O3  UNL     1      -3.472  -1.195  -0.793  1.00  0.00    -0.296 OA
ENDROOT
BRANCH  13  22
HETATM   22  C15 UNL     1       5.156   2.756   0.770  1.00  0.00    -0.004 C 
HETATM   23  C16 UNL     1       5.464   4.054   0.619  1.00  0.00    -0.000 C 
ENDBRANCH  13  22
TORSDOF 1
