REMARK  1 active torsions:
REMARK  status: ('A' for Active; 'I' for Inactive)
REMARK    1  A    between atoms: C12_12  and  C15_16 
ROOT
HETATM    1  C1  UNL     1      -1.733  -0.066  -1.643  1.00  0.00     0.181 C 
HETATM    2  C2  UNL     1      -2.265  -1.000  -0.577  1.00  0.00     0.209 C 
HETATM    3  C3  UNL     1      -1.157  -1.844   0.088  1.00  0.00     0.035 C 
HETATM    4  C4  UNL     1       0.264  -1.209  -0.066  1.00  0.00     0.004 C 
HETATM    5  C5  UNL     1       0.359   0.344  -0.139  1.00  0.00     0.014 C 
HETATM    6  C6  UNL     1      -0.556   0.824  -1.297  1.00  0.00     0.068 C 
HETATM    7  C7  UNL     1       1.841   0.764  -0.447  1.00  0.00     0.063 C 
HETATM    8  C8  UNL     1       2.861   0.141   0.520  1.00  0.00     0.011 C 
HETATM    9  C9  UNL     1       2.725  -1.387   0.547  1.00  0.00     0.001 C 
HETATM   10  C10 UNL     1       1.297  -1.802   0.913  1.00  0.00     0.000 C 
HETATM   11  C11 UNL     1       4.301   0.599   0.219  1.00  0.00     0.023 C 
HETATM   12  C12 UNL     1       4.371   2.116   0.148  1.00  0.00    -0.020 C 
HETATM   13  C13 UNL     1       3.288   2.809  -0.248  1.00  0.00     0.033 C 
HETATM   14  C14 UNL     1       2.084   2.269  -0.570  1.00  0.00     0.172 C 
HETATM   15  O1  UNL     1       1.205   3.009  -0.954  1.00  0.00    -0.291 OA
HETATM   16  C17 UNL     1       4.919   0.015  -1.065  1.00  0.00     0.005 C 
HETATM   17  C18 UNL     1      -0.080   1.016   1.183  1.00  0.00     0.001 C 
HETATM   18  C19 UNL     1      -1.528  -2.167   1.553  1.00  0.00     0.003 C 
HETATM   19  C20 UNL     1      -1.148  -3.210  -0.659  1.00  0.00     0.003 C 
HETATM   20  O2  UNL     1      -3.025  -0.240   0.346  1.00  0.00    -0.215 OA
HETATM   21  O3  UNL     1      -2.297   0.017  -2.711  1.00  0.00    -0.293 OA
ENDROOT
BRANCH  12  22
HETATM   22  C15 UNL     1       5.546   2.704   0.456  1.00  0.00    -0.004 C 
HETATM   23  C16 UNL     1       5.855   4.010   0.453  1.00  0.00    -0.000 C 
ENDBRANCH  12  22
TORSDOF 1
