REMARK  4 active torsions:
REMARK  status: ('A' for Active; 'I' for Inactive)
REMARK    1  A    between atoms: C3_3  and  O1_5 
REMARK    2  A    between atoms: C6_7  and  O9_30 
REMARK    3  A    between atoms: C12_15  and  O7_26 
REMARK    4  A    between atoms: C14_17  and  C17_22 
ROOT
HETATM    1  C1  UNL     1       2.744   3.718  -0.270  1.00  0.00     0.296 A 
HETATM    2  C2  UNL     1       1.635   3.572   0.488  1.00  0.00     0.088 A 
HETATM    3  C3  UNL     1       0.720   4.508   0.816  1.00  0.00     0.076 C 
HETATM    4  C4  UNL     1       0.787   5.952   0.359  1.00  0.00     0.058 C 
HETATM    5  C6  UNL     1       1.614   2.114   0.911  1.00  0.00     0.172 A 
HETATM    6  C7  UNL     1       2.827   1.475   0.182  1.00  0.00     0.162 A 
HETATM    7  O2  UNL     1       3.462   2.583  -0.425  1.00  0.00    -0.298 OA
HETATM    8  C8  UNL     1       3.724   0.795   1.188  1.00  0.00     0.173 A 
HETATM    9  O3  UNL     1       4.973   1.188   1.913  1.00  0.00    -0.349 OA
HETATM   10  C9  UNL     1       4.943   0.700   0.463  1.00  0.00     0.173 A 
HETATM   11  C10 UNL     1       4.348  -0.407  -0.399  1.00  0.00     0.167 C 
HETATM   12  C11 UNL     1       2.908   0.180  -0.803  1.00  0.00     0.085 C 
HETATM   13  C12 UNL     1       1.889  -1.027  -0.862  1.00  0.00     0.148 C 
HETATM   14  C13 UNL     1       2.298  -2.359  -0.220  1.00  0.00     0.154 C 
HETATM   15  C14 UNL     1       3.663  -2.780  -0.771  1.00  0.00     0.070 C 
HETATM   16  C15 UNL     1       4.451  -1.844   0.152  1.00  0.00     0.122 C 
HETATM   17  C16 UNL     1       3.733  -2.083   1.465  1.00  0.00     0.274 C 
HETATM   18  O4  UNL     1       2.421  -2.221   1.164  1.00  0.00    -0.302 OA
HETATM   19  O5  UNL     1       4.212  -2.066   2.578  1.00  0.00    -0.264 OA
HETATM   20  C21 UNL     1       2.888   0.739  -2.265  1.00  0.00     0.008 C 
HETATM   21  O8  UNL     1       5.159  -0.439  -1.565  1.00  0.00    -0.223 OA
HETATM   22  O10 UNL     1       3.110   4.747  -0.794  1.00  0.00    -0.259 OA
ENDROOT
BRANCH   5  23
HETATM   23  O9  UNL     1       0.361   1.558   0.631  1.00  0.00    -0.347 OA
HETATM   24  C22 UNL     1      -0.206   0.899   1.747  1.00  0.00     0.175 C 
ENDBRANCH   5  23
BRANCH  13  25
HETATM   25  O7  UNL     1       0.588  -0.652  -0.542  1.00  0.00    -0.351 OA
HETATM   26  C20 UNL     1      -0.435  -1.571  -0.864  1.00  0.00     0.174 C 
ENDBRANCH  13  25
BRANCH   3  27
HETATM   27  O1  UNL     1      -0.360   4.176   1.595  1.00  0.00    -0.332 OA
HETATM   28  C5  UNL     1      -1.625   4.534   1.086  1.00  0.00     0.181 C 
ENDBRANCH   3  27
BRANCH  15  29
HETATM   29  C17 UNL     1       4.013  -4.279  -0.706  1.00  0.00     0.130 C 
HETATM   30  C18 UNL     1       3.059  -5.128  -1.557  1.00  0.00     0.033 C 
HETATM   31  C19 UNL     1       5.447  -4.537  -1.183  1.00  0.00     0.033 C 
HETATM   32  O6  UNL     1       3.913  -4.721   0.618  1.00  0.00    -0.226 OA
ENDBRANCH  15  29
TORSDOF 4
