REMARK  4 active torsions:
REMARK  status: ('A' for Active; 'I' for Inactive)
REMARK    1  A    between atoms: C2_2  and  C3_3 
REMARK    2  A    between atoms: C4_5  and  O9_28 
REMARK    3  A    between atoms: C10_12  and  O6_23 
REMARK    4  A    between atoms: C12_14  and  C15_19 
ROOT
HETATM    1  C1  UNL     1       1.509   4.111  -0.006  1.00  0.00     0.301 C 
HETATM    2  C2  UNL     1       0.180   3.946   0.186  1.00  0.00     0.126 C 
HETATM    3  C4  UNL     1      -0.018   2.667   0.557  1.00  0.00     0.108 C 
HETATM    4  C5  UNL     1       1.317   1.902   0.489  1.00  0.00     0.172 C 
HETATM    5  O2  UNL     1       2.227   2.988   0.245  1.00  0.00    -0.294 OA
HETATM    6  C6  UNL     1       1.835   1.224   1.762  1.00  0.00     0.176 A 
HETATM    7  C7  UNL     1       2.797   0.257   1.452  1.00  0.00     0.174 A 
HETATM    8  C8  UNL     1       2.985   0.135  -0.083  1.00  0.00     0.170 C 
HETATM    9  C9  UNL     1       1.559   0.838  -0.665  1.00  0.00     0.087 C 
HETATM   10  C10 UNL     1       0.397  -0.310  -1.112  1.00  0.00     0.150 C 
HETATM   11  C11 UNL     1       0.769  -1.897  -1.125  1.00  0.00     0.180 C 
HETATM   12  C12 UNL     1       1.866  -1.372  -0.306  1.00  0.00     0.166 C 
HETATM   13  C13 UNL     1       3.353  -1.460  -0.362  1.00  0.00     0.147 C 
HETATM   14  C14 UNL     1       3.068  -2.644  -1.462  1.00  0.00     0.277 C 
HETATM   15  O3  UNL     1       1.675  -2.717  -1.902  1.00  0.00    -0.299 OA
HETATM   16  O4  UNL     1       3.942  -3.354  -1.912  1.00  0.00    -0.264 OA
HETATM   17  O5  UNL     1       2.339  -0.866  -1.831  1.00  0.00    -0.223 OA
HETATM   18  C19 UNL     1       1.705   1.690  -1.987  1.00  0.00     0.008 C 
HETATM   19  O7  UNL     1       4.099   0.897  -0.499  1.00  0.00    -0.223 OA
HETATM   20  O8  UNL     1       3.316   1.593   1.994  1.00  0.00    -0.349 OA
HETATM   21  O10 UNL     1       2.044   5.150  -0.327  1.00  0.00    -0.259 OA
ENDROOT
BRANCH   3  22
HETATM   22  O9  UNL     1      -1.252   2.218   0.941  1.00  0.00    -0.330 OA
HETATM   23  C20 UNL     1      -1.345   1.555   2.179  1.00  0.00     0.181 C 
ENDBRANCH   3  22
BRANCH   2  24
HETATM   24  C3  UNL     1      -0.778   4.901   0.075  1.00  0.00     0.241 C 
HETATM   25  O1  UNL     1      -0.566   6.045  -0.248  1.00  0.00    -0.283 OA
ENDBRANCH   2  24
BRANCH  10  26
HETATM   26  O6  UNL     1      -0.640  -0.183  -0.184  1.00  0.00    -0.351 OA
HETATM   27  C18 UNL     1      -1.930  -0.429  -0.703  1.00  0.00     0.174 C 
ENDBRANCH  10  26
BRANCH  12  28
HETATM   28  C15 UNL     1       1.828  -2.711   0.679  1.00  0.00     0.031 C 
HETATM   29  C16 UNL     1       0.713  -2.419   1.734  1.00  0.00     0.003 C 
HETATM   30  C17 UNL     1       1.661  -4.213   0.312  1.00  0.00     0.003 C 
ENDBRANCH  12  28
TORSDOF 4
