REMARK  3 active torsions:
REMARK  status: ('A' for Active; 'I' for Inactive)
REMARK    1  A    between atoms: C2_2  and  C3_3 
REMARK    2  A    between atoms: C11_14  and  O6_24 
REMARK    3  A    between atoms: C13_16  and  C16_21 
ROOT
HETATM    1  C1  UNL     1       0.898   3.862  -0.693  1.00  0.00     0.274 C 
HETATM    2  C2  UNL     1       0.373   3.626   0.705  1.00  0.00     0.119 C 
HETATM    3  C5  UNL     1       1.265   2.479   1.192  1.00  0.00     0.043 C 
HETATM    4  C6  UNL     1       1.959   1.893  -0.048  1.00  0.00     0.134 C 
HETATM    5  O2  UNL     1       1.667   2.814  -1.065  1.00  0.00    -0.304 OA
HETATM    6  C7  UNL     1       3.495   1.848   0.224  1.00  0.00     0.170 A 
HETATM    7  O3  UNL     1       4.333   1.180  -0.878  1.00  0.00    -0.349 OA
HETATM    8  C8  UNL     1       3.910   0.528   0.444  1.00  0.00     0.173 A 
HETATM    9  C9  UNL     1       2.635  -0.311   0.433  1.00  0.00     0.167 C 
HETATM   10  C10 UNL     1       1.633   0.418  -0.500  1.00  0.00     0.082 C 
HETATM   11  C11 UNL     1       0.255  -0.310  -0.345  1.00  0.00     0.148 C 
HETATM   12  C12 UNL     1       0.395  -1.860  -0.233  1.00  0.00     0.152 C 
HETATM   13  C13 UNL     1       1.679  -2.401  -0.867  1.00  0.00     0.042 C 
HETATM   14  C14 UNL     1       2.632  -1.838   0.207  1.00  0.00     0.119 C 
HETATM   15  C15 UNL     1       1.852  -2.395   1.392  1.00  0.00     0.274 C 
HETATM   16  O4  UNL     1       0.529  -2.280   1.099  1.00  0.00    -0.302 OA
HETATM   17  O5  UNL     1       2.330  -2.676   2.467  1.00  0.00    -0.264 OA
HETATM   18  C20 UNL     1       2.034   0.302  -2.021  1.00  0.00     0.007 C 
HETATM   19  O7  UNL     1       2.227  -0.111   1.788  1.00  0.00    -0.223 OA
HETATM   20  O8  UNL     1       0.627   4.801  -1.408  1.00  0.00    -0.264 OA
ENDROOT
BRANCH   2  21
HETATM   21  C3  UNL     1      -1.131   3.338   0.695  1.00  0.00     0.162 C 
HETATM   22  C4  UNL     1      -1.983   4.593   0.512  1.00  0.00     0.036 C 
HETATM   23  O1  UNL     1      -1.501   2.732   1.911  1.00  0.00    -0.223 OA
ENDBRANCH   2  21
BRANCH  11  24
HETATM   24  O6  UNL     1      -0.538   0.211   0.689  1.00  0.00    -0.351 OA
HETATM   25  C19 UNL     1      -1.868  -0.273   0.692  1.00  0.00     0.174 C 
ENDBRANCH  11  24
BRANCH  13  26
HETATM   26  C16 UNL     1       1.755  -3.945  -1.025  1.00  0.00     0.003 C 
HETATM   27  C17 UNL     1       0.634  -4.497  -1.927  1.00  0.00     0.000 C 
HETATM   28  C18 UNL     1       3.112  -4.371  -1.621  1.00  0.00     0.000 C 
ENDBRANCH  13  26
TORSDOF 3
