REMARK  4 active torsions:
REMARK  status: ('A' for Active; 'I' for Inactive)
REMARK    1  A    between atoms: C13_13  and  C22_22 
REMARK    2  A    between atoms: C26_29  and  O5_34 
REMARK    3  A    between atoms: C27_30  and  C29_32 
REMARK    4  A    between atoms: O5_34  and  C30_35 
ROOT
HETATM    1  C1  UNL     1       7.215  -0.051   0.457  1.00  0.00     0.006 C 
HETATM    2  C2  UNL     1       7.387  -1.580   0.433  1.00  0.00     0.033 C 
HETATM    3  C3  UNL     1       6.101  -2.401   0.504  1.00  0.00     0.152 C 
HETATM    4  C4  UNL     1       5.122  -2.134  -0.664  1.00  0.00     0.035 C 
HETATM    5  C5  UNL     1       4.952  -0.588  -0.932  1.00  0.00     0.003 C 
HETATM    6  C6  UNL     1       6.247   0.297  -0.715  1.00  0.00     0.005 C 
HETATM    7  C7  UNL     1       7.115   0.556  -1.947  1.00  0.00     0.025 C 
HETATM    8  C8  UNL     1       7.993   1.742  -1.655  1.00  0.00    -0.035 C 
HETATM    9  C9  UNL     1       8.745   1.871  -0.542  1.00  0.00    -0.049 C 
HETATM   10  C10 UNL     1       8.658   0.682   0.413  1.00  0.00     0.017 C 
HETATM   11  C11 UNL     1       9.889  -0.128  -0.134  1.00  0.00     0.037 C 
HETATM   12  C12 UNL     1      11.003   0.678  -0.860  1.00  0.00     0.162 C 
HETATM   13  C13 UNL     1      11.301   2.065  -0.243  1.00  0.00     0.110 C 
HETATM   14  C14 UNL     1       9.960   2.862  -0.503  1.00  0.00     0.026 C 
HETATM   15  C15 UNL     1       9.879   4.048   0.475  1.00  0.00     0.004 C 
HETATM   16  C16 UNL     1      11.111   5.006   0.418  1.00  0.00     0.000 C 
HETATM   17  C17 UNL     1      12.431   4.360  -0.137  1.00  0.00     0.001 C 
HETATM   18  C18 UNL     1      12.426   2.957  -0.820  1.00  0.00     0.013 C 
HETATM   19  C19 UNL     1      11.368   5.560   1.851  1.00  0.00     0.000 C 
HETATM   20  C20 UNL     1      10.766   6.310  -0.361  1.00  0.00     0.000 C 
HETATM   21  C21 UNL     1       9.984   3.557  -1.910  1.00  0.00     0.005 C 
HETATM   22  O3  UNL     1      12.155  -0.124  -0.976  1.00  0.00    -0.223 OA
HETATM   23  C23 UNL     1       8.962   1.051   1.879  1.00  0.00     0.004 C 
HETATM   24  C24 UNL     1       3.788   0.021  -0.090  1.00  0.00     0.003 C 
HETATM   25  C25 UNL     1       2.984  -1.015   0.693  1.00  0.00     0.030 C 
HETATM   26  C26 UNL     1       2.553  -2.133  -0.252  1.00  0.00     0.120 C 
HETATM   27  C27 UNL     1       3.782  -3.003  -0.670  1.00  0.00     0.058 C 
HETATM   28  C28 UNL     1       3.522  -3.556  -2.104  1.00  0.00     0.005 C 
HETATM   29  C35 UNL     1       4.489  -0.401  -2.409  1.00  0.00     0.000 C 
HETATM   30  O10 UNL     1       6.559  -3.735   0.495  1.00  0.00    -0.224 OA
HETATM   31  C36 UNL     1       6.427   0.289   1.759  1.00  0.00     0.000 C 
ENDROOT
BRANCH  26  32
HETATM   32  O5  UNL     1       1.523  -2.827   0.409  1.00  0.00    -0.332 OA
BRANCH  32  33
HETATM   33  C30 UNL     1       0.406  -3.160  -0.386  1.00  0.00     0.270 C 
HETATM   34  C31 UNL     1      -0.421  -4.243   0.280  1.00  0.00     0.241 C 
HETATM   35  C32 UNL     1      -1.235  -3.748   1.460  1.00  0.00     0.220 C 
HETATM   36  O9  UNL     1      -1.308  -4.782  -0.675  1.00  0.00    -0.215 OA
HETATM   37  C33 UNL     1      -1.949  -2.463   1.102  1.00  0.00     0.215 C 
HETATM   38  O8  UNL     1      -0.401  -3.488   2.564  1.00  0.00    -0.218 OA
HETATM   39  C34 UNL     1      -0.980  -1.460   0.508  1.00  0.00     0.181 C 
HETATM   40  O7  UNL     1      -2.509  -1.937   2.281  1.00  0.00    -0.218 OA
HETATM   41  O6  UNL     1      -0.337  -1.983  -0.626  1.00  0.00    -0.326 OA
ENDBRANCH  32  33
ENDBRANCH  26  32
BRANCH  27  42
HETATM   42  C29 UNL     1       3.832  -4.284   0.206  1.00  0.00     0.185 C 
HETATM   43  O4  UNL     1       4.685  -5.281  -0.329  1.00  0.00    -0.221 OA
ENDBRANCH  27  42
BRANCH  13  44
HETATM   44  C22 UNL     1      11.928   1.880   1.162  1.00  0.00     0.187 C 
HETATM   45  O1  UNL     1      11.714   2.522   2.166  1.00  0.00    -0.647 OA
HETATM   46  O2  UNL     1      12.861   0.899   1.177  1.00  0.00    -0.647 OA
ENDBRANCH  13  44
TORSDOF 4
