REMARK  12 active torsions:
REMARK  status: ('A' for Active; 'I' for Inactive)
REMARK    1  A    between atoms: C1_2  and  C28_44 
REMARK    2  A    between atoms: C5_6  and  O2_7 
REMARK    3  A    between atoms: O2_7  and  C6_8 
REMARK    4  A    between atoms: C11_13  and  C12_14 
REMARK    5  A    between atoms: C12_14  and  O3_15 
REMARK    6  A    between atoms: O3_15  and  C13_16 
REMARK    7  A    between atoms: C13_16  and  C14_17 
REMARK    8  A    between atoms: C15_18  and  O4_19 
REMARK    9  A    between atoms: C19_23  and  O6_27 
REMARK   10  A    between atoms: C20_24  and  O5_25 
REMARK   11  A    between atoms: O6_27  and  C22_28 
REMARK   12  A    between atoms: C23_30  and  C27_37 
ROOT
HETATM    1  C14 UNL     1       0.134   0.114  -2.093  1.00  0.00     0.110 C 
HETATM    2  C15 UNL     1      -1.153   0.524  -2.051  1.00  0.00     0.103 C 
HETATM    3  C17 UNL     1      -1.844   0.159  -0.954  1.00  0.00     0.054 C 
HETATM    4  C18 UNL     1      -1.264  -0.479   0.074  1.00  0.00     0.157 C 
HETATM    5  C19 UNL     1       0.008  -0.895  -0.064  1.00  0.00     0.144 C 
HETATM    6  C20 UNL     1       0.505  -0.937  -1.327  1.00  0.00     0.125 C 
HETATM    7  O12 UNL     1      -1.893  -0.586   1.274  1.00  0.00    -0.188 OA
ENDROOT
BRANCH   1   8
HETATM    8  C13 UNL     1       1.101   0.716  -2.864  1.00  0.00     0.300 C 
HETATM    9  O13 UNL     1       0.819   1.677  -3.547  1.00  0.00    -0.259 OA
BRANCH   8  10
HETATM   10  O3  UNL     1       2.441   0.458  -2.648  1.00  0.00    -0.293 OA
BRANCH  10  11
HETATM   11  C12 UNL     1       3.323   1.551  -2.447  1.00  0.00     0.181 C 
BRANCH  11  12
HETATM   12  C11 UNL     1       4.783   1.155  -2.148  1.00  0.00     0.030 A 
HETATM   13  C6  UNL     1       5.408   0.928  -0.946  1.00  0.00     0.095 A 
HETATM   14  C7  UNL     1       6.746   0.731  -1.018  1.00  0.00     0.024 A 
HETATM   15  C8  UNL     1       7.468   0.696  -2.144  1.00  0.00     0.002 A 
HETATM   16  C9  UNL     1       6.837   0.868  -3.307  1.00  0.00    -0.000 A 
HETATM   17  C10 UNL     1       5.520   1.101  -3.280  1.00  0.00     0.000 A 
BRANCH  13  18
HETATM   18  O2  UNL     1       4.913   0.852   0.371  1.00  0.00    -0.304 OA
BRANCH  18  19
HETATM   19  C5  UNL     1       3.679   0.164   0.712  1.00  0.00     0.274 C 
HETATM   20  O1  UNL     1       2.739   1.502   0.527  1.00  0.00    -0.326 OA
HETATM   21  C1  UNL     1       1.438   1.698   1.256  1.00  0.00     0.184 C 
HETATM   22  C2  UNL     1       1.099   0.993   2.664  1.00  0.00     0.215 C 
HETATM   23  C3  UNL     1       1.649  -0.454   3.145  1.00  0.00     0.220 C 
HETATM   24  O16 UNL     1      -0.305   0.938   2.765  1.00  0.00    -0.218 OA
HETATM   25  C4  UNL     1       3.111  -1.055   2.312  1.00  0.00     0.241 C 
HETATM   26  O15 UNL     1       1.836  -0.463   4.557  1.00  0.00    -0.218 OA
HETATM   27  O14 UNL     1       2.710  -2.458   2.342  1.00  0.00    -0.215 OA
BRANCH  21  28
HETATM   28  C28 UNL     1       1.100   3.196   1.306  1.00  0.00     0.214 C 
HETATM   29  O17 UNL     1       1.334   3.782   0.041  1.00  0.00    -0.218 OA
ENDBRANCH  21  28
ENDBRANCH  18  19
ENDBRANCH  13  18
ENDBRANCH  11  12
ENDBRANCH  10  11
ENDBRANCH   8  10
ENDBRANCH   1   8
BRANCH   2  30
HETATM   30  O4  UNL     1      -1.699   1.469  -2.885  1.00  0.00    -0.328 OA
HETATM   31  C16 UNL     1      -2.362   0.904  -3.994  1.00  0.00     0.181 C 
ENDBRANCH   2  30
BRANCH   6  32
HETATM   32  O5  UNL     1       1.640  -1.654  -1.597  1.00  0.00    -0.326 OA
HETATM   33  C21 UNL     1       1.458  -2.630  -2.598  1.00  0.00     0.181 C 
ENDBRANCH   6  32
BRANCH   5  34
HETATM   34  O6  UNL     1       0.818  -1.187   1.054  1.00  0.00    -0.299 OA
BRANCH  34  35
HETATM   35  C22 UNL     1       2.176  -0.521   1.016  1.00  0.00     0.274 C 
HETATM   36  O7  UNL     1       3.018  -1.816   0.396  1.00  0.00    -0.326 OA
HETATM   37  C23 UNL     1       4.497  -2.010   0.574  1.00  0.00     0.184 C 
HETATM   38  C24 UNL     1       5.317  -1.410   1.812  1.00  0.00     0.215 C 
HETATM   39  C25 UNL     1       4.979  -0.009   2.540  1.00  0.00     0.220 C 
HETATM   40  O10 UNL     1       6.681  -1.365   1.453  1.00  0.00    -0.218 OA
HETATM   41  C26 UNL     1       3.320   0.613   2.340  1.00  0.00     0.241 C 
HETATM   42  O9  UNL     1       5.316  -0.095   3.921  1.00  0.00    -0.218 OA
HETATM   43  O8  UNL     1       3.693   2.021   2.318  1.00  0.00    -0.215 OA
BRANCH  37  44
HETATM   44  C27 UNL     1       4.822  -3.498   0.380  1.00  0.00     0.214 C 
HETATM   45  O11 UNL     1       4.151  -3.988  -0.764  1.00  0.00    -0.218 OA
ENDBRANCH  37  44
ENDBRANCH  34  35
ENDBRANCH   5  34
TORSDOF 12
