REMARK  5 active torsions:
REMARK  status: ('A' for Active; 'I' for Inactive)
REMARK    1  A    between atoms: C9_9  and  C14_15 
REMARK    2  A    between atoms: C14_15  and  C15_16 
REMARK    3  A    between atoms: C15_16  and  C16_17 
REMARK    4  A    between atoms: C16_17  and  C19_21 
REMARK    5  A    between atoms: C17_18  and  C18_19 
ROOT
HETATM    1  C1  UNL     1       0.671   0.803  -0.192  1.00  0.00     0.005 C 
HETATM    2  C2  UNL     1      -0.744   0.434  -0.656  1.00  0.00     0.025 C 
HETATM    3  C3  UNL     1      -1.382  -0.540   0.292  1.00  0.00    -0.035 C 
HETATM    4  C4  UNL     1      -0.887  -1.758   0.551  1.00  0.00    -0.048 C 
HETATM    5  C5  UNL     1      -1.569  -2.687   1.528  1.00  0.00     0.026 C 
HETATM    6  C6  UNL     1       0.339  -2.292  -0.150  1.00  0.00     0.029 C 
HETATM    7  C7  UNL     1       1.666  -1.550   0.127  1.00  0.00     0.062 C 
HETATM    8  C8  UNL     1       1.791  -0.185  -0.598  1.00  0.00     0.008 C 
HETATM    9  C9  UNL     1       3.229   0.453  -0.550  1.00  0.00     0.001 C 
HETATM   10  C10 UNL     1       4.279  -0.603  -1.015  1.00  0.00     0.007 C 
HETATM   11  C11 UNL     1       4.226  -1.881  -0.166  1.00  0.00     0.065 C 
HETATM   12  C12 UNL     1       2.836  -2.472  -0.226  1.00  0.00     0.150 C 
HETATM   13  O1  UNL     1       2.697  -3.639  -0.513  1.00  0.00    -0.296 OA
HETATM   14  C13 UNL     1       4.207  -0.992  -2.508  1.00  0.00     0.000 C 
HETATM   15  C20 UNL     1       3.293   1.657  -1.526  1.00  0.00     0.000 C 
ENDROOT
BRANCH   9  16
HETATM   16  C14 UNL     1       3.565   0.976   0.881  1.00  0.00     0.004 C 
BRANCH  16  17
HETATM   17  C15 UNL     1       4.706   1.999   1.071  1.00  0.00     0.024 C 
BRANCH  17  18
HETATM   18  C16 UNL     1       6.095   1.568   0.655  1.00  0.00    -0.013 C 
HETATM   19  C17 UNL     1       6.702   0.539   1.272  1.00  0.00     0.003 C 
BRANCH  19  20
HETATM   20  C18 UNL     1       8.078   0.026   0.950  1.00  0.00     0.208 C 
HETATM   21  O2  UNL     1       9.043   0.864   1.572  1.00  0.00    -0.215 OA
ENDBRANCH  19  20
BRANCH  18  22
HETATM   22  C19 UNL     1       6.766   2.354  -0.448  1.00  0.00     0.204 C 
HETATM   23  O3  UNL     1       8.036   2.840  -0.033  1.00  0.00    -0.216 OA
ENDBRANCH  18  22
ENDBRANCH  17  18
ENDBRANCH  16  17
ENDBRANCH   9  16
TORSDOF 5
