REMARK  4 active torsions:
REMARK  status: ('A' for Active; 'I' for Inactive)
REMARK    1  A    between atoms: C9_11  and  C12_16 
REMARK    2  A    between atoms: C12_16  and  O5_17 
REMARK    3  A    between atoms: O5_17  and  C13_18 
REMARK    4  A    between atoms: C15_22  and  C18_26 
ROOT
HETATM    1  C1  UNL     1       2.744  -2.018  -0.795  1.00  0.00     0.097 A 
HETATM    2  C2  UNL     1       2.768  -3.337  -1.001  1.00  0.00     0.052 A 
HETATM    3  C3  UNL     1       3.939  -3.998  -1.085  1.00  0.00     0.138 A 
HETATM    4  C4  UNL     1       5.094  -3.294  -0.956  1.00  0.00     0.087 A 
HETATM    5  C5  UNL     1       5.085  -1.955  -0.765  1.00  0.00     0.103 A 
HETATM    6  C6  UNL     1       3.890  -1.348  -0.695  1.00  0.00     0.028 A 
HETATM    7  C7  UNL     1       3.613   0.116  -0.528  1.00  0.00     0.090 C 
HETATM    8  C8  UNL     1       2.099   0.005  -0.269  1.00  0.00     0.227 C 
HETATM    9  O1  UNL     1       1.742  -1.317  -0.686  1.00  0.00    -0.308 OA
HETATM   10  O2  UNL     1       1.403   1.025  -0.927  1.00  0.00    -0.329 OA
HETATM   11  C9  UNL     1       1.038   2.019   0.000  1.00  0.00     0.181 C 
HETATM   12  C10 UNL     1       1.583   1.599   1.359  1.00  0.00     0.217 C 
HETATM   13  C11 UNL     1       1.696   0.106   1.189  1.00  0.00     0.236 C 
HETATM   14  O3  UNL     1       2.657  -0.461   2.040  1.00  0.00    -0.215 OA
HETATM   15  O4  UNL     1       0.734   1.903   2.434  1.00  0.00    -0.218 OA
HETATM   16  O7  UNL     1       6.206  -1.187  -0.652  1.00  0.00    -0.307 OA
HETATM   17  C15 UNL     1       7.416  -1.819  -0.685  1.00  0.00     0.103 A 
HETATM   18  C16 UNL     1       7.436  -3.152  -0.877  1.00  0.00     0.067 A 
HETATM   19  C17 UNL     1       6.312  -3.902  -1.022  1.00  0.00     0.202 A 
HETATM   20  O8  UNL     1       6.462  -5.091  -1.195  1.00  0.00    -0.286 OA
HETATM   21  O10 UNL     1       3.858  -5.348  -1.274  1.00  0.00    -0.190 OA
ENDROOT
BRANCH  11  22
HETATM   22  C12 UNL     1      -0.474   2.222  -0.080  1.00  0.00     0.184 C 
BRANCH  22  23
HETATM   23  O5  UNL     1      -0.834   3.411   0.575  1.00  0.00    -0.299 OA
BRANCH  23  24
HETATM   24  C13 UNL     1      -2.109   3.849   0.393  1.00  0.00     0.273 C 
HETATM   25  C14 UNL     1      -2.329   5.153   1.133  1.00  0.00     0.106 C 
HETATM   26  O6  UNL     1      -2.951   3.287  -0.271  1.00  0.00    -0.264 OA
ENDBRANCH  23  24
ENDBRANCH  22  23
ENDBRANCH  11  22
BRANCH  17  27
HETATM   27  C18 UNL     1       8.552  -1.090  -0.530  1.00  0.00     0.023 A 
HETATM   28  C19 UNL     1       8.461   0.246  -0.357  1.00  0.00     0.004 A 
HETATM   29  C20 UNL     1       9.539   1.028  -0.193  1.00  0.00     0.028 A 
HETATM   30  C21 UNL     1      10.780   0.518  -0.189  1.00  0.00     0.131 A 
HETATM   31  C22 UNL     1      10.887  -0.808  -0.360  1.00  0.00     0.028 A 
HETATM   32  O9  UNL     1      11.872   1.309  -0.020  1.00  0.00    -0.190 OA
HETATM   33  C23 UNL     1       9.807  -1.588  -0.527  1.00  0.00     0.004 A 
ENDBRANCH  17  27
TORSDOF 4
