REMARK  4 active torsions:
REMARK  status: ('A' for Active; 'I' for Inactive)
REMARK    1  A    between atoms: C10_11  and  C13_16 
REMARK    2  A    between atoms: C11_12  and  C12_14 
REMARK    3  A    between atoms: C13_16  and  C14_17 
REMARK    4  A    between atoms: C16_22  and  C19_26 
ROOT
HETATM    1  C1  UNL     1       1.804  -1.837   0.646  1.00  0.00     0.097 A 
HETATM    2  C2  UNL     1       1.791  -3.173   0.628  1.00  0.00     0.052 A 
HETATM    3  C3  UNL     1       2.921  -3.873   0.856  1.00  0.00     0.138 A 
HETATM    4  C4  UNL     1       4.072  -3.196   1.107  1.00  0.00     0.087 A 
HETATM    5  C5  UNL     1       4.090  -1.845   1.161  1.00  0.00     0.103 A 
HETATM    6  C6  UNL     1       2.936  -1.201   0.938  1.00  0.00     0.028 A 
HETATM    7  C7  UNL     1       2.693   0.275   0.981  1.00  0.00     0.090 C 
HETATM    8  C8  UNL     1       1.309   0.277   0.310  1.00  0.00     0.224 C 
HETATM    9  O1  UNL     1       0.860  -1.084   0.420  1.00  0.00    -0.308 OA
HETATM   10  C9  UNL     1       1.283   0.615  -1.180  1.00  0.00     0.207 C 
HETATM   11  C10 UNL     1       0.004   1.436  -1.318  1.00  0.00     0.073 C 
HETATM   12  C11 UNL     1      -0.027   2.108   0.055  1.00  0.00     0.154 C 
HETATM   13  O2  UNL     1       0.434   1.152   0.968  1.00  0.00    -0.332 OA
HETATM   14  O5  UNL     1       2.396   1.385  -1.563  1.00  0.00    -0.218 OA
HETATM   15  O6  UNL     1       5.195  -1.099   1.433  1.00  0.00    -0.307 OA
HETATM   16  C16 UNL     1       6.390  -1.750   1.538  1.00  0.00     0.103 A 
HETATM   17  C17 UNL     1       6.387  -3.096   1.498  1.00  0.00     0.067 A 
HETATM   18  C18 UNL     1       5.260  -3.835   1.308  1.00  0.00     0.202 A 
HETATM   19  O7  UNL     1       5.384  -5.039   1.291  1.00  0.00    -0.286 OA
HETATM   20  O9  UNL     1       2.810  -5.232   0.803  1.00  0.00    -0.190 OA
ENDROOT
BRANCH  11  21
HETATM   21  C13 UNL     1      -0.045   2.404  -2.511  1.00  0.00     0.070 C 
BRANCH  21  22
HETATM   22  C14 UNL     1       0.311   1.754  -3.839  1.00  0.00     0.151 C 
HETATM   23  C15 UNL     1      -0.736   1.769  -4.935  1.00  0.00     0.072 C 
HETATM   24  O4  UNL     1       1.399   1.254  -4.013  1.00  0.00    -0.296 OA
ENDBRANCH  21  22
ENDBRANCH  11  21
BRANCH  12  25
HETATM   25  C12 UNL     1      -1.385   2.608   0.515  1.00  0.00     0.212 C 
HETATM   26  O3  UNL     1      -1.822   3.675  -0.301  1.00  0.00    -0.218 OA
ENDBRANCH  12  25
BRANCH  16  27
HETATM   27  C19 UNL     1       7.525  -1.017   1.681  1.00  0.00     0.023 A 
HETATM   28  C20 UNL     1       7.433   0.330   1.723  1.00  0.00     0.004 A 
HETATM   29  C21 UNL     1       8.508   1.124   1.842  1.00  0.00     0.028 A 
HETATM   30  C22 UNL     1       9.745   0.615   1.926  1.00  0.00     0.131 A 
HETATM   31  C23 UNL     1       9.853  -0.722   1.891  1.00  0.00     0.028 A 
HETATM   32  O8  UNL     1      10.833   1.423   2.041  1.00  0.00    -0.190 OA
HETATM   33  C24 UNL     1       8.775  -1.515   1.773  1.00  0.00     0.004 A 
ENDBRANCH  16  27
TORSDOF 4
