REMARK  8 active torsions:
REMARK  status: ('A' for Active; 'I' for Inactive)
REMARK    1  A    between atoms: C2_2  and  C8_10 
REMARK    2  A    between atoms: C13_17  and  C14_18 
REMARK    3  A    between atoms: C16_20  and  O7_32 
REMARK    4  A    between atoms: C17_21  and  O5_24 
REMARK    5  A    between atoms: O5_24  and  C20_25 
REMARK    6  A    between atoms: C20_25  and  C21_26 
REMARK    7  A    between atoms: C21_26  and  C22_27 
REMARK    8  A    between atoms: C22_27  and  C23_29 
ROOT
HETATM    1  C8  UNL     1       4.354  -2.385   0.819  1.00  0.00     0.140 C 
HETATM    2  O3  UNL     1       5.431  -3.227   0.418  1.00  0.00    -0.352 OA
HETATM    3  C9  UNL     1       6.432  -2.447  -0.214  1.00  0.00     0.145 C 
HETATM    4  C10 UNL     1       6.089  -1.020   0.154  1.00  0.00     0.066 C 
HETATM    5  C11 UNL     1       4.572  -1.131  -0.007  1.00  0.00     0.066 C 
HETATM    6  C12 UNL     1       4.234   0.298   0.360  1.00  0.00     0.145 C 
HETATM    7  O4  UNL     1       5.230   1.076  -0.281  1.00  0.00    -0.352 OA
HETATM    8  C13 UNL     1       6.309   0.235  -0.670  1.00  0.00     0.140 C 
ENDROOT
BRANCH   8   9
HETATM    9  C14 UNL     1       7.674   0.869  -0.478  1.00  0.00     0.007 A 
HETATM   10  C15 UNL     1       8.796   0.154  -0.658  1.00  0.00     0.024 A 
HETATM   11  C16 UNL     1      10.045   0.636  -0.491  1.00  0.00     0.116 A 
HETATM   12  C17 UNL     1      10.194   1.954  -0.199  1.00  0.00     0.116 A 
HETATM   13  C18 UNL     1       9.064   2.671  -0.032  1.00  0.00     0.026 A 
HETATM   14  C19 UNL     1       7.832   2.160  -0.154  1.00  0.00     0.000 A 
BRANCH  11  15
HETATM   15  O7  UNL     1      11.098  -0.208  -0.742  1.00  0.00    -0.326 OA
HETATM   16  C26 UNL     1      11.387  -1.097   0.315  1.00  0.00     0.181 C 
ENDBRANCH  11  15
BRANCH  12  17
HETATM   17  O5  UNL     1      11.366   2.666  -0.060  1.00  0.00    -0.329 OA
BRANCH  17  18
HETATM   18  C20 UNL     1      12.613   2.135  -0.418  1.00  0.00     0.152 C 
BRANCH  18  19
HETATM   19  C21 UNL     1      13.667   3.237  -0.257  1.00  0.00     0.070 C 
BRANCH  19  20
HETATM   20  C22 UNL     1      15.083   2.783  -0.622  1.00  0.00     0.173 C 
HETATM   21  O6  UNL     1      15.390   1.621   0.128  1.00  0.00    -0.219 OA
BRANCH  20  22
HETATM   22  C23 UNL     1      16.188   3.807  -0.432  1.00  0.00    -0.014 C 
HETATM   23  C24 UNL     1      17.606   3.306  -0.590  1.00  0.00     0.029 C 
HETATM   24  C25 UNL     1      15.962   5.101  -0.150  1.00  0.00    -0.007 C 
ENDBRANCH  20  22
ENDBRANCH  19  20
ENDBRANCH  18  19
ENDBRANCH  17  18
ENDBRANCH  12  17
ENDBRANCH   8   9
BRANCH   1  25
HETATM   25  C2  UNL     1       3.006  -3.068   0.666  1.00  0.00     0.007 A 
HETATM   26  C1  UNL     1       2.889  -4.393   0.894  1.00  0.00     0.000 A 
HETATM   27  C6  UNL     1       1.716  -5.041   0.779  1.00  0.00     0.026 A 
HETATM   28  C5  UNL     1       0.638  -4.328   0.432  1.00  0.00     0.119 A 
HETATM   29  C4  UNL     1       0.733  -3.013   0.212  1.00  0.00     0.119 A 
HETATM   30  O1  UNL     1      -0.513  -4.727   0.279  1.00  0.00    -0.300 OA
HETATM   31  C3  UNL     1       1.903  -2.373   0.326  1.00  0.00     0.024 A 
HETATM   32  O2  UNL     1      -0.357  -2.533  -0.087  1.00  0.00    -0.300 OA
HETATM   33  C7  UNL     1      -1.310  -3.598  -0.081  1.00  0.00     0.304 A 
ENDBRANCH   1  25
TORSDOF 8
