REMARK  7 active torsions:
REMARK  status: ('A' for Active; 'I' for Inactive)
REMARK    1  A    between atoms: C2_2  and  C3_3 
REMARK    2  A    between atoms: C3_3  and  C4_4 
REMARK    3  A    between atoms: C4_4  and  C5_5 
REMARK    4  A    between atoms: C5_5  and  C6_6 
REMARK    5  A    between atoms: C6_6  and  C7_7 
REMARK    6  A    between atoms: N1_11  and  C11_12 
REMARK    7  A    between atoms: C11_12  and  C12_13 
ROOT
HETATM    1  C7  UNL     1       0.780  -0.857  -1.179  1.00  0.00     0.246 C 
HETATM    2  C8  UNL     1      -0.027  -1.164  -2.458  1.00  0.00     0.070 C 
HETATM    3  C9  UNL     1       0.845  -2.104  -3.320  1.00  0.00     0.093 C 
HETATM    4  C10 UNL     1       2.233  -1.825  -2.789  1.00  0.00     0.236 C 
HETATM    5  N1  UNL     1       2.142  -1.109  -1.634  1.00  0.00    -0.294 N 
HETATM    6  O1  UNL     1       3.258  -2.232  -3.281  1.00  0.00    -0.272 OA
HETATM    7  O2  UNL     1       0.443  -1.799  -0.173  1.00  0.00    -0.195 OA
ENDROOT
BRANCH   1   8
HETATM    8  C6  UNL     1       0.495   0.583  -0.739  1.00  0.00     0.198 C 
HETATM    9  O3  UNL     1       1.167   1.504  -1.146  1.00  0.00    -0.291 OA
BRANCH   8  10
HETATM   10  C5  UNL     1      -0.692   0.847   0.174  1.00  0.00     0.069 C 
BRANCH  10  11
HETATM   11  C4  UNL     1      -0.342   0.720   1.664  1.00  0.00     0.008 C 
BRANCH  11  12
HETATM   12  C3  UNL     1      -1.498   1.193   2.561  1.00  0.00     0.000 C 
BRANCH  12  13
HETATM   13  C2  UNL     1      -1.215   0.942   4.051  1.00  0.00     0.000 C 
HETATM   14  C1  UNL     1      -2.335   1.494   4.943  1.00  0.00     0.000 C 
ENDBRANCH  12  13
ENDBRANCH  11  12
ENDBRANCH  10  11
ENDBRANCH   8  10
ENDBRANCH   1   8
BRANCH   5  15
HETATM   15  C11 UNL     1       3.267  -0.788  -0.765  1.00  0.00     0.107 C 
BRANCH  15  16
HETATM   16  C12 UNL     1       4.469  -0.121  -1.466  1.00  0.00     0.022 C 
HETATM   17  C13 UNL     1       4.077   1.149  -2.237  1.00  0.00     0.002 C 
HETATM   18  C14 UNL     1       5.567   0.209  -0.439  1.00  0.00     0.002 C 
ENDBRANCH  15  16
ENDBRANCH   5  15
TORSDOF 7
