REMARK  1 active torsions:
REMARK  status: ('A' for Active; 'I' for Inactive)
REMARK    1  A    between atoms: C14_15  and  O2_18 
ROOT
HETATM    1  C1  UNL     1      -0.727  -0.079   0.081  1.00  0.00     0.000 A 
HETATM    2  C2  UNL     1      -1.830  -0.843   0.098  1.00  0.00     0.000 A 
HETATM    3  C3  UNL     1      -1.718  -2.175   0.090  1.00  0.00     0.000 A 
HETATM    4  C4  UNL     1      -0.494  -2.717   0.083  1.00  0.00     0.000 A 
HETATM    5  C5  UNL     1       0.614  -1.950   0.067  1.00  0.00     0.002 A 
HETATM    6  C6  UNL     1       0.522  -0.590   0.040  1.00  0.00     0.002 A 
HETATM    7  C7  UNL     1       1.652   0.166   0.004  1.00  0.00     0.029 A 
HETATM    8  C8  UNL     1       2.779  -0.545   0.045  1.00  0.00     0.025 A 
HETATM    9  C9  UNL     1       2.912  -1.869   0.090  1.00  0.00     0.085 A 
HETATM   10  C10 UNL     1       1.798  -2.600   0.091  1.00  0.00     0.019 A 
HETATM   11  N1  UNL     1       4.149  -2.163   0.118  1.00  0.00    -0.208 NA
HETATM   12  C11 UNL     1       4.850  -1.106   0.094  1.00  0.00     0.279 A 
HETATM   13  C12 UNL     1       4.009  -0.049   0.043  1.00  0.00     0.061 A 
HETATM   14  C13 UNL     1       4.207   1.267  -0.009  1.00  0.00     0.031 A 
HETATM   15  C14 UNL     1       3.112   2.058  -0.073  1.00  0.00     0.119 A 
HETATM   16  C15 UNL     1       1.864   1.506  -0.062  1.00  0.00     0.153 A 
HETATM   17  O1  UNL     1       0.822   2.375  -0.179  1.00  0.00    -0.188 OA
HETATM   18  O3  UNL     1       6.056  -1.090   0.109  1.00  0.00    -0.265 OA
ENDROOT
BRANCH  15  19
HETATM   19  O2  UNL     1       3.190   3.432  -0.156  1.00  0.00    -0.326 OA
HETATM   20  C16 UNL     1       4.454   4.054  -0.160  1.00  0.00     0.181 C 
ENDBRANCH  15  19
TORSDOF 1
