REMARK  2 active torsions:
REMARK  status: ('A' for Active; 'I' for Inactive)
REMARK    1  A    between atoms: C13_14  and  O3_20 
REMARK    2  A    between atoms: C14_15  and  O2_18 
ROOT
HETATM    1  C1  UNL     1      -0.674   0.146   0.100  1.00  0.00     0.000 A 
HETATM    2  C2  UNL     1      -1.796  -0.589   0.106  1.00  0.00     0.000 A 
HETATM    3  C3  UNL     1      -1.721  -1.924   0.087  1.00  0.00     0.000 A 
HETATM    4  C4  UNL     1      -0.510  -2.494   0.083  1.00  0.00     0.000 A 
HETATM    5  C5  UNL     1       0.614  -1.750   0.079  1.00  0.00     0.002 A 
HETATM    6  C6  UNL     1       0.565  -0.391   0.058  1.00  0.00     0.002 A 
HETATM    7  C7  UNL     1       1.721   0.328   0.033  1.00  0.00     0.029 A 
HETATM    8  C8  UNL     1       2.855  -0.374   0.085  1.00  0.00     0.025 A 
HETATM    9  C9  UNL     1       2.909  -1.707   0.127  1.00  0.00     0.063 A 
HETATM   10  C10 UNL     1       1.783  -2.421   0.110  1.00  0.00     0.017 A 
HETATM   11  N1  UNL     1       4.141  -1.994   0.172  1.00  0.00    -0.294 N 
HETATM   12  C11 UNL     1       4.900  -0.983   0.166  1.00  0.00     0.263 A 
HETATM   13  C12 UNL     1       4.099   0.117   0.095  1.00  0.00     0.082 A 
HETATM   14  C13 UNL     1       4.323   1.447   0.049  1.00  0.00     0.123 A 
HETATM   15  C14 UNL     1       3.192   2.207  -0.038  1.00  0.00     0.142 A 
HETATM   16  C15 UNL     1       1.944   1.659  -0.038  1.00  0.00     0.155 A 
HETATM   17  O1  UNL     1       0.902   2.527  -0.176  1.00  0.00    -0.188 OA
HETATM   18  O4  UNL     1       6.100  -1.069   0.219  1.00  0.00    -0.267 OA
HETATM   19  C18 UNL     1       4.628  -3.381   0.229  1.00  0.00     0.134 C 
ENDROOT
BRANCH  14  20
HETATM   20  O3  UNL     1       5.537   2.090   0.020  1.00  0.00    -0.326 OA
HETATM   21  C17 UNL     1       6.755   1.457  -0.263  1.00  0.00     0.181 C 
ENDBRANCH  14  20
BRANCH  15  22
HETATM   22  O2  UNL     1       3.162   3.591  -0.131  1.00  0.00    -0.324 OA
HETATM   23  C16 UNL     1       4.309   4.405  -0.141  1.00  0.00     0.182 C 
ENDBRANCH  15  22
TORSDOF 2
