REMARK  2 active torsions:
REMARK  status: ('A' for Active; 'I' for Inactive)
REMARK    1  A    between atoms: C5_5  and  C18_19 
REMARK    2  A    between atoms: C12_12  and  C15_16 
ROOT
HETATM    1  C1  UNL     1       0.837  -3.549  -0.751  1.00  0.00     0.000 C 
HETATM    2  C2  UNL     1      -0.567  -3.274  -0.205  1.00  0.00     0.000 C 
HETATM    3  C3  UNL     1      -1.086  -1.853  -0.527  1.00  0.00     0.000 C 
HETATM    4  C4  UNL     1       0.015  -0.818  -0.150  1.00  0.00     0.006 C 
HETATM    5  C5  UNL     1       1.464  -1.048  -0.674  1.00  0.00     0.049 C 
HETATM    6  C6  UNL     1       1.844  -2.497  -0.265  1.00  0.00     0.007 C 
HETATM    7  C7  UNL     1       2.420  -0.022  -0.037  1.00  0.00    -0.022 A 
HETATM    8  C8  UNL     1       1.984   1.138   0.495  1.00  0.00    -0.026 A 
HETATM    9  C9  UNL     1       0.524   1.525   0.554  1.00  0.00     0.026 C 
HETATM   10  C10 UNL     1      -0.398   0.651  -0.298  1.00  0.00     0.005 C 
HETATM   11  C11 UNL     1       2.875   2.001   1.014  1.00  0.00    -0.007 A 
HETATM   12  C12 UNL     1       4.200   1.782   1.014  1.00  0.00     0.003 A 
HETATM   13  C13 UNL     1       4.649   0.638   0.463  1.00  0.00     0.127 A 
HETATM   14  C14 UNL     1       3.752  -0.223  -0.046  1.00  0.00     0.022 A 
HETATM   15  O1  UNL     1       5.975   0.334   0.406  1.00  0.00    -0.191 OA
HETATM   16  C19 UNL     1      -1.567  -1.772  -1.990  1.00  0.00     0.000 C 
HETATM   17  C20 UNL     1      -2.353  -1.643   0.347  1.00  0.00     0.000 C 
ENDROOT
BRANCH  12  18
HETATM   18  C15 UNL     1       5.150   2.805   1.621  1.00  0.00     0.024 C 
HETATM   19  C16 UNL     1       5.054   4.163   0.904  1.00  0.00     0.005 C 
HETATM   20  C17 UNL     1       4.905   2.951   3.132  1.00  0.00     0.005 C 
ENDBRANCH  12  18
BRANCH   5  21
HETATM   21  C18 UNL     1       1.696  -0.898  -2.191  1.00  0.00     0.186 C 
HETATM   22  O2  UNL     1       1.567   0.439  -2.632  1.00  0.00    -0.220 OA
ENDBRANCH   5  21
TORSDOF 2
