REMARK  2 active torsions:
REMARK  status: ('A' for Active; 'I' for Inactive)
REMARK    1  A    between atoms: C5_5  and  C18_19 
REMARK    2  A    between atoms: C12_12  and  C15_16 
ROOT
HETATM    1  C1  UNL     1       0.851  -3.400  -0.877  1.00  0.00     0.001 C 
HETATM    2  C2  UNL     1      -0.584  -3.064  -0.463  1.00  0.00     0.000 C 
HETATM    3  C3  UNL     1      -1.011  -1.626  -0.839  1.00  0.00     0.001 C 
HETATM    4  C4  UNL     1       0.065  -0.635  -0.311  1.00  0.00     0.011 C 
HETATM    5  C5  UNL     1       1.530  -0.925  -0.738  1.00  0.00     0.077 C 
HETATM    6  C6  UNL     1       1.852  -2.380  -0.317  1.00  0.00     0.011 C 
HETATM    7  C7  UNL     1       2.495   0.090  -0.115  1.00  0.00    -0.018 A 
HETATM    8  C8  UNL     1       2.083   1.272   0.385  1.00  0.00    -0.026 A 
HETATM    9  C9  UNL     1       0.632   1.691   0.413  1.00  0.00     0.026 C 
HETATM   10  C10 UNL     1      -0.269   0.852  -0.497  1.00  0.00     0.005 C 
HETATM   11  C11 UNL     1       2.994   2.119   0.894  1.00  0.00    -0.007 A 
HETATM   12  C12 UNL     1       4.315   1.867   0.929  1.00  0.00     0.003 A 
HETATM   13  C13 UNL     1       4.735   0.692   0.420  1.00  0.00     0.127 A 
HETATM   14  C14 UNL     1       3.819  -0.148  -0.092  1.00  0.00     0.023 A 
HETATM   15  O1  UNL     1       6.041   0.312   0.394  1.00  0.00    -0.191 OA
HETATM   16  C19 UNL     1      -1.258  -1.514  -2.357  1.00  0.00     0.000 C 
HETATM   17  C20 UNL     1      -2.378  -1.380  -0.147  1.00  0.00     0.000 C 
ENDROOT
BRANCH  12  18
HETATM   18  C15 UNL     1       5.226   2.924   1.549  1.00  0.00     0.024 C 
HETATM   19  C16 UNL     1       5.110   2.862   3.083  1.00  0.00     0.005 C 
HETATM   20  C17 UNL     1       6.707   2.916   1.136  1.00  0.00     0.005 C 
ENDBRANCH  12  18
BRANCH   5  21
HETATM   21  C18 UNL     1       1.764  -0.739  -2.238  1.00  0.00     0.210 C 
HETATM   22  O2  UNL     1       2.356  -1.541  -2.921  1.00  0.00    -0.288 OA
ENDBRANCH   5  21
TORSDOF 2
