REMARK  2 active torsions:
REMARK  status: ('A' for Active; 'I' for Inactive)
REMARK    1  A    between atoms: C5_7  and  C6_8 
REMARK    2  A    between atoms: C14_19  and  C15_20 
ROOT
HETATM    1  C1  UNL     1       4.210   1.429   1.583  1.00  0.00     0.189 C 
HETATM    2  C2  UNL     1       4.110  -0.088   1.413  1.00  0.00     0.211 C 
HETATM    3  C3  UNL     1       2.673  -0.215   0.950  1.00  0.00     0.073 C 
HETATM    4  C4  UNL     1       2.070   0.905   1.428  1.00  0.00     0.294 C 
HETATM    5  O1  UNL     1       2.919   1.848   1.931  1.00  0.00    -0.295 OA
HETATM    6  O2  UNL     1       0.874   1.086   1.488  1.00  0.00    -0.259 OA
HETATM    7  C5  UNL     1       2.137  -1.278   0.325  1.00  0.00     0.004 C 
HETATM    8  O4  UNL     1       4.185  -0.721   2.671  1.00  0.00    -0.216 OA
HETATM    9  C12 UNL     1       5.284  -0.583   0.592  1.00  0.00     0.245 C 
HETATM   10  C13 UNL     1       5.431   0.215  -0.667  1.00  0.00     0.303 C 
HETATM   11  O5  UNL     1       5.696   1.554  -0.344  1.00  0.00    -0.324 OA
HETATM   12  C14 UNL     1       4.592   2.151   0.277  1.00  0.00     0.181 C 
HETATM   13  O7  UNL     1       6.633  -0.125  -1.330  1.00  0.00    -0.187 OA
HETATM   14  O8  UNL     1       5.186  -1.948   0.289  1.00  0.00    -0.215 OA
ENDROOT
BRANCH   7  15
HETATM   15  C6  UNL     1       0.940  -1.524  -0.250  1.00  0.00     0.000 A 
HETATM   16  C7  UNL     1       0.633  -2.793  -0.592  1.00  0.00     0.002 A 
HETATM   17  C8  UNL     1      -0.523  -3.113  -1.193  1.00  0.00     0.027 A 
HETATM   18  C9  UNL     1      -1.431  -2.175  -1.506  1.00  0.00     0.131 A 
HETATM   19  C10 UNL     1      -1.117  -0.904  -1.212  1.00  0.00     0.027 A 
HETATM   20  O3  UNL     1      -2.600  -2.484  -2.128  1.00  0.00    -0.190 OA
HETATM   21  C11 UNL     1       0.042  -0.589  -0.611  1.00  0.00     0.002 A 
ENDBRANCH   7  15
BRANCH  12  22
HETATM   22  C15 UNL     1       4.913   3.619   0.526  1.00  0.00     0.214 C 
HETATM   23  O6  UNL     1       5.118   4.274  -0.711  1.00  0.00    -0.218 OA
ENDBRANCH  12  22
TORSDOF 2
