REMARK  12 active torsions:
REMARK  status: ('A' for Active; 'I' for Inactive)
REMARK    1  A    between atoms: C3_3  and  C4_4 
REMARK    2  A    between atoms: C4_4  and  C5_5 
REMARK    3  A    between atoms: C6_6  and  C7_7 
REMARK    4  A    between atoms: C7_7  and  C8_8 
REMARK    5  A    between atoms: C8_8  and  C9_9 
REMARK    6  A    between atoms: C10_10  and  C11_11 
REMARK    7  A    between atoms: C11_11  and  C12_12 
REMARK    8  A    between atoms: C12_12  and  C13_13 
REMARK    9  A    between atoms: C14_14  and  C15_15 
REMARK   10  A    between atoms: C15_15  and  C16_16 
REMARK   11  A    between atoms: C16_16  and  C17_17 
REMARK   12  A    between atoms: C17_17  and  C18_18 
ROOT
HETATM    1  C9  UNL     1       3.028   0.719  -0.838  1.00  0.00    -0.034 C 
HETATM    2  C10 UNL     1       1.702   0.896  -0.694  1.00  0.00    -0.048 C 
HETATM    3  C22 UNL     1       1.027   2.248  -0.769  1.00  0.00     0.026 C 
ENDROOT
BRANCH   1   4
HETATM    4  C8  UNL     1       4.072   1.799  -1.015  1.00  0.00     0.030 C 
BRANCH   4   5
HETATM    5  C7  UNL     1       5.387   1.412  -0.316  1.00  0.00     0.026 C 
BRANCH   5   6
HETATM    6  C6  UNL     1       6.441   2.499  -0.208  1.00  0.00    -0.048 C 
HETATM    7  C5  UNL     1       6.478   3.564  -1.029  1.00  0.00    -0.030 C 
HETATM    8  C23 UNL     1       7.440   2.265   0.902  1.00  0.00     0.026 C 
BRANCH   7   9
HETATM    9  C4  UNL     1       7.427   4.733  -0.929  1.00  0.00     0.054 C 
BRANCH   9  10
HETATM   10  C3  UNL     1       6.784   6.059  -1.297  1.00  0.00     0.009 A 
HETATM   11  C2  UNL     1       7.464   6.927  -2.067  1.00  0.00     0.025 A 
HETATM   12  C1  UNL     1       6.963   8.122  -2.414  1.00  0.00     0.131 A 
HETATM   13  C26 UNL     1       5.738   8.431  -1.964  1.00  0.00     0.025 A 
HETATM   14  O4  UNL     1       7.666   8.994  -3.187  1.00  0.00    -0.190 OA
HETATM   15  C25 UNL     1       5.033   7.590  -1.188  1.00  0.00     0.005 A 
HETATM   16  C24 UNL     1       5.558   6.396  -0.843  1.00  0.00     0.123 A 
HETATM   17  C27 UNL     1       3.655   7.987  -0.704  1.00  0.00     0.033 C 
HETATM   18  O3  UNL     1       4.850   5.555  -0.037  1.00  0.00    -0.191 OA
ENDBRANCH   9  10
ENDBRANCH   7   9
ENDBRANCH   5   6
ENDBRANCH   4   5
ENDBRANCH   1   4
BRANCH   2  19
HETATM   19  C11 UNL     1       0.733  -0.247  -0.438  1.00  0.00     0.026 C 
BRANCH  19  20
HETATM   20  C12 UNL     1       1.343  -1.621  -0.111  1.00  0.00     0.030 C 
BRANCH  20  21
HETATM   21  C13 UNL     1       0.283  -2.634   0.257  1.00  0.00    -0.034 C 
HETATM   22  C14 UNL     1       0.393  -3.641   1.145  1.00  0.00    -0.048 C 
HETATM   23  C21 UNL     1       1.646  -3.944   1.935  1.00  0.00     0.026 C 
BRANCH  22  24
HETATM   24  C15 UNL     1      -0.790  -4.551   1.433  1.00  0.00     0.029 C 
BRANCH  24  25
HETATM   25  C16 UNL     1      -0.519  -6.033   1.132  1.00  0.00     0.071 C 
BRANCH  25  26
HETATM   26  C17 UNL     1      -1.716  -6.939   1.392  1.00  0.00     0.178 C 
HETATM   27  O2  UNL     1      -2.842  -6.493   1.389  1.00  0.00    -0.293 OA
BRANCH  26  28
HETATM   28  C18 UNL     1      -1.456  -8.424   1.673  1.00  0.00     0.177 C 
HETATM   29  C19 UNL     1      -2.761  -9.164   1.977  1.00  0.00     0.041 C 
HETATM   30  C20 UNL     1      -0.740  -9.067   0.484  1.00  0.00     0.041 C 
HETATM   31  O1  UNL     1      -0.626  -8.545   2.809  1.00  0.00    -0.218 OA
ENDBRANCH  26  28
ENDBRANCH  25  26
ENDBRANCH  24  25
ENDBRANCH  22  24
ENDBRANCH  20  21
ENDBRANCH  19  20
ENDBRANCH   2  19
TORSDOF 12
