REMARK  12 active torsions:
REMARK  status: ('A' for Active; 'I' for Inactive)
REMARK    1  A    between atoms: C3_4  and  C4_5 
REMARK    2  A    between atoms: C4_5  and  C5_6 
REMARK    3  A    between atoms: C6_7  and  C7_8 
REMARK    4  A    between atoms: C7_8  and  C8_9 
REMARK    5  A    between atoms: C8_9  and  C9_10 
REMARK    6  A    between atoms: C10_11  and  C11_12 
REMARK    7  A    between atoms: C11_12  and  C12_13 
REMARK    8  A    between atoms: C12_13  and  C13_14 
REMARK    9  A    between atoms: C14_15  and  C15_16 
REMARK   10  A    between atoms: C15_16  and  C16_17 
REMARK   11  A    between atoms: C16_17  and  C17_18 
REMARK   12  A    between atoms: C17_18  and  C18_19 
ROOT
HETATM    1  C9  UNL     1       5.902   1.297  -0.216  1.00  0.00    -0.034 C 
HETATM    2  C10 UNL     1       6.920   1.387   0.661  1.00  0.00    -0.048 C 
HETATM    3  C22 UNL     1       7.574   2.693   1.050  1.00  0.00     0.026 C 
ENDROOT
BRANCH   1   4
HETATM    4  C8  UNL     1       5.221   2.457  -0.903  1.00  0.00     0.030 C 
BRANCH   4   5
HETATM    5  C7  UNL     1       4.390   2.044  -2.130  1.00  0.00     0.026 C 
BRANCH   5   6
HETATM    6  C6  UNL     1       3.480   3.177  -2.572  1.00  0.00    -0.048 C 
HETATM    7  C5  UNL     1       2.160   3.123  -2.312  1.00  0.00    -0.030 C 
HETATM    8  C23 UNL     1       4.168   4.351  -3.226  1.00  0.00     0.026 C 
BRANCH   7   9
HETATM    9  C4  UNL     1       1.127   4.189  -2.579  1.00  0.00     0.055 C 
BRANCH   9  10
HETATM   10  C3  UNL     1       0.296   3.892  -3.811  1.00  0.00     0.024 A 
HETATM   11  C2  UNL     1       0.392   4.676  -4.899  1.00  0.00     0.041 A 
HETATM   12  C1  UNL     1      -0.336   4.467  -6.022  1.00  0.00     0.195 A 
HETATM   13  O1  UNL     1      -0.239   5.188  -6.991  1.00  0.00    -0.287 OA
HETATM   14  C26 UNL     1      -1.181   3.408  -6.002  1.00  0.00     0.041 A 
HETATM   15  C25 UNL     1      -1.303   2.601  -4.934  1.00  0.00     0.020 A 
HETATM   16  C24 UNL     1      -0.561   2.836  -3.819  1.00  0.00     0.188 A 
HETATM   17  C27 UNL     1      -2.260   1.430  -4.955  1.00  0.00     0.035 C 
HETATM   18  O4  UNL     1      -0.675   2.118  -2.851  1.00  0.00    -0.287 OA
ENDBRANCH   9  10
ENDBRANCH   7   9
ENDBRANCH   5   6
ENDBRANCH   4   5
ENDBRANCH   1   4
BRANCH   2  19
HETATM   19  C11 UNL     1       7.445   0.158   1.378  1.00  0.00     0.026 C 
BRANCH  19  20
HETATM   20  C12 UNL     1       8.884  -0.227   1.002  1.00  0.00     0.030 C 
BRANCH  20  21
HETATM   21  C13 UNL     1       9.316  -1.407   1.843  1.00  0.00    -0.034 C 
HETATM   22  C14 UNL     1      10.202  -1.420   2.857  1.00  0.00    -0.048 C 
HETATM   23  C21 UNL     1      11.000  -0.216   3.310  1.00  0.00     0.026 C 
BRANCH  22  24
HETATM   24  C15 UNL     1      10.489  -2.657   3.694  1.00  0.00     0.029 C 
BRANCH  24  25
HETATM   25  C16 UNL     1       9.644  -3.912   3.419  1.00  0.00     0.071 C 
BRANCH  25  26
HETATM   26  C17 UNL     1       9.913  -5.063   4.381  1.00  0.00     0.178 C 
HETATM   27  O3  UNL     1      10.546  -4.885   5.398  1.00  0.00    -0.293 OA
BRANCH  26  28
HETATM   28  C18 UNL     1       9.374  -6.453   4.020  1.00  0.00     0.177 C 
HETATM   29  C19 UNL     1       7.876  -6.395   3.717  1.00  0.00     0.041 C 
HETATM   30  C20 UNL     1       9.648  -7.455   5.146  1.00  0.00     0.041 C 
HETATM   31  O2  UNL     1      10.040  -6.917   2.865  1.00  0.00    -0.218 OA
ENDBRANCH  26  28
ENDBRANCH  25  26
ENDBRANCH  24  25
ENDBRANCH  22  24
ENDBRANCH  20  21
ENDBRANCH  19  20
ENDBRANCH   2  19
TORSDOF 12
