REMARK  30 active torsions:
REMARK  status: ('A' for Active; 'I' for Inactive)
REMARK    1  A    between atoms: C1_1  and  O4_31 
REMARK    2  A    between atoms: C3_3  and  C4_4 
REMARK    3  A    between atoms: C4_4  and  C5_5 
REMARK    4  A    between atoms: C6_6  and  C7_7 
REMARK    5  A    between atoms: C7_7  and  C8_8 
REMARK    6  A    between atoms: C8_8  and  C9_9 
REMARK    7  A    between atoms: C10_10  and  C11_11 
REMARK    8  A    between atoms: C11_11  and  C12_12 
REMARK    9  A    between atoms: C12_12  and  C13_13 
REMARK   10  A    between atoms: C14_14  and  C15_15 
REMARK   11  A    between atoms: C15_15  and  C16_16 
REMARK   12  A    between atoms: C16_16  and  C17_17 
REMARK   13  A    between atoms: C17_17  and  C18_18 
REMARK   14  A    between atoms: O4_31  and  C28_32 
REMARK   15  A    between atoms: C28_32  and  C29_33 
REMARK   16  A    between atoms: C29_33  and  C30_34 
REMARK   17  A    between atoms: C30_34  and  C31_35 
REMARK   18  A    between atoms: C31_35  and  C32_36 
REMARK   19  A    between atoms: C32_36  and  C33_37 
REMARK   20  A    between atoms: C33_37  and  C34_38 
REMARK   21  A    between atoms: C34_38  and  C35_39 
REMARK   22  A    between atoms: C35_39  and  C36_40 
REMARK   23  A    between atoms: C36_40  and  C37_41 
REMARK   24  A    between atoms: C37_41  and  C38_42 
REMARK   25  A    between atoms: C38_42  and  C39_43 
REMARK   26  A    between atoms: C39_43  and  C40_44 
REMARK   27  A    between atoms: C40_44  and  C41_45 
REMARK   28  A    between atoms: C41_45  and  C42_46 
REMARK   29  A    between atoms: C42_46  and  C43_47 
REMARK   30  A    between atoms: C43_47  and  C44_48 
ROOT
HETATM    1  C1  UNL     1      11.790  -1.780   0.522  1.00  0.00     0.102 A 
HETATM    2  C2  UNL     1      12.308  -3.005   0.713  1.00  0.00     0.023 A 
HETATM    3  C3  UNL     1      11.609  -4.024   1.244  1.00  0.00     0.009 A 
HETATM    4  C24 UNL     1      10.327  -3.816   1.612  1.00  0.00     0.123 A 
HETATM    5  C25 UNL     1       9.765  -2.612   1.388  1.00  0.00     0.005 A 
HETATM    6  C26 UNL     1      10.494  -1.624   0.844  1.00  0.00     0.023 A 
HETATM    7  C27 UNL     1       8.314  -2.369   1.748  1.00  0.00     0.033 C 
HETATM    8  O3  UNL     1       9.590  -4.795   2.200  1.00  0.00    -0.191 OA
ENDROOT
BRANCH   3   9
HETATM    9  C4  UNL     1      12.303  -5.363   1.449  1.00  0.00     0.054 C 
BRANCH   9  10
HETATM   10  C5  UNL     1      11.400  -6.550   1.212  1.00  0.00    -0.030 C 
HETATM   11  C6  UNL     1      11.101  -7.533   2.082  1.00  0.00    -0.048 C 
HETATM   12  C23 UNL     1      11.678  -7.660   3.473  1.00  0.00     0.026 C 
BRANCH  11  13
HETATM   13  C7  UNL     1       9.996  -8.526   1.763  1.00  0.00     0.026 C 
BRANCH  13  14
HETATM   14  C8  UNL     1       8.648  -7.873   2.108  1.00  0.00     0.030 C 
BRANCH  14  15
HETATM   15  C9  UNL     1       7.456  -8.794   2.123  1.00  0.00    -0.034 C 
HETATM   16  C10 UNL     1       6.220  -8.411   2.495  1.00  0.00    -0.048 C 
HETATM   17  C22 UNL     1       5.895  -6.993   2.915  1.00  0.00     0.026 C 
BRANCH  16  18
HETATM   18  C11 UNL     1       5.078  -9.407   2.580  1.00  0.00     0.026 C 
BRANCH  18  19
HETATM   19  C12 UNL     1       3.772  -8.913   1.934  1.00  0.00     0.030 C 
BRANCH  19  20
HETATM   20  C13 UNL     1       2.657  -9.924   2.049  1.00  0.00    -0.034 C 
HETATM   21  C14 UNL     1       1.340  -9.652   2.105  1.00  0.00    -0.048 C 
HETATM   22  C21 UNL     1       0.771  -8.251   2.021  1.00  0.00     0.026 C 
BRANCH  21  23
HETATM   23  C15 UNL     1       0.269 -10.720   2.230  1.00  0.00     0.024 C 
BRANCH  23  24
HETATM   24  C16 UNL     1       0.730 -12.161   2.492  1.00  0.00     0.040 C 
BRANCH  24  25
HETATM   25  C17 UNL     1      -0.388 -13.183   2.744  1.00  0.00     0.180 C 
HETATM   26  O2  UNL     1      -1.051 -12.864   3.945  1.00  0.00    -0.221 OA
BRANCH  25  27
HETATM   27  C18 UNL     1      -1.409 -13.419   1.623  1.00  0.00     0.155 C 
HETATM   28  C19 UNL     1      -1.923 -14.865   1.668  1.00  0.00     0.036 C 
HETATM   29  C20 UNL     1      -2.618 -12.478   1.660  1.00  0.00     0.036 C 
HETATM   30  O1  UNL     1      -0.770 -13.253   0.384  1.00  0.00    -0.223 OA
ENDBRANCH  25  27
ENDBRANCH  24  25
ENDBRANCH  23  24
ENDBRANCH  21  23
ENDBRANCH  19  20
ENDBRANCH  18  19
ENDBRANCH  16  18
ENDBRANCH  14  15
ENDBRANCH  13  14
ENDBRANCH  11  13
ENDBRANCH   9  10
ENDBRANCH   3   9
BRANCH   1  31
HETATM   31  O4  UNL     1      12.557  -0.772  -0.003  1.00  0.00    -0.276 OA
BRANCH  31  32
HETATM   32  C28 UNL     1      12.511   0.433   0.633  1.00  0.00     0.276 C 
HETATM   33  O5  UNL     1      12.035   0.619   1.732  1.00  0.00    -0.264 OA
BRANCH  32  34
HETATM   34  C29 UNL     1      13.186   1.518  -0.190  1.00  0.00     0.096 C 
BRANCH  34  35
HETATM   35  C30 UNL     1      12.371   2.820  -0.231  1.00  0.00     0.010 C 
BRANCH  35  36
HETATM   36  C31 UNL     1      13.160   3.961  -0.892  1.00  0.00     0.001 C 
BRANCH  36  37
HETATM   37  C32 UNL     1      12.338   5.256  -0.997  1.00  0.00     0.000 C 
BRANCH  37  38
HETATM   38  C33 UNL     1      13.186   6.421  -1.531  1.00  0.00     0.000 C 
BRANCH  38  39
HETATM   39  C34 UNL     1      12.365   7.709  -1.702  1.00  0.00     0.000 C 
BRANCH  39  40
HETATM   40  C35 UNL     1      13.246   8.888  -2.145  1.00  0.00     0.000 C 
BRANCH  40  41
HETATM   41  C36 UNL     1      12.428  10.169  -2.373  1.00  0.00     0.000 C 
BRANCH  41  42
HETATM   42  C37 UNL     1      13.324  11.358  -2.754  1.00  0.00     0.000 C 
BRANCH  42  43
HETATM   43  C38 UNL     1      12.507  12.632  -3.025  1.00  0.00     0.000 C 
BRANCH  43  44
HETATM   44  C39 UNL     1      13.407  13.828  -3.371  1.00  0.00     0.000 C 
BRANCH  44  45
HETATM   45  C40 UNL     1      12.588  15.094  -3.672  1.00  0.00     0.000 C 
BRANCH  45  46
HETATM   46  C41 UNL     1      13.488  16.296  -4.000  1.00  0.00     0.000 C 
BRANCH  46  47
HETATM   47  C42 UNL     1      12.667  17.555  -4.320  1.00  0.00     0.000 C 
BRANCH  47  48
HETATM   48  C43 UNL     1      13.564  18.762  -4.641  1.00  0.00     0.000 C 
BRANCH  48  49
HETATM   49  C44 UNL     1      12.741  20.017  -4.969  1.00  0.00     0.000 C 
HETATM   50  C45 UNL     1      13.637  21.221  -5.287  1.00  0.00     0.000 C 
ENDBRANCH  48  49
ENDBRANCH  47  48
ENDBRANCH  46  47
ENDBRANCH  45  46
ENDBRANCH  44  45
ENDBRANCH  43  44
ENDBRANCH  42  43
ENDBRANCH  41  42
ENDBRANCH  40  41
ENDBRANCH  39  40
ENDBRANCH  38  39
ENDBRANCH  37  38
ENDBRANCH  36  37
ENDBRANCH  35  36
ENDBRANCH  34  35
ENDBRANCH  32  34
ENDBRANCH  31  32
ENDBRANCH   1  31
TORSDOF 30
