REMARK  8 active torsions:
REMARK  status: ('A' for Active; 'I' for Inactive)
REMARK    1  A    between atoms: C4_4  and  O7_18 
REMARK    2  A    between atoms: C5_6  and  C6_7 
REMARK    3  A    between atoms: C6_7  and  O2_8 
REMARK    4  A    between atoms: O2_8  and  C7_9 
REMARK    5  A    between atoms: O7_18  and  C12_19 
REMARK    6  A    between atoms: C12_19  and  C13_20 
REMARK    7  A    between atoms: C13_20  and  C14_21 
REMARK    8  A    between atoms: C14_21  and  C15_22 
ROOT
HETATM    1  C1  UNL     1      -1.087  -2.680   0.530  1.00  0.00     0.215 C 
HETATM    2  C2  UNL     1      -0.376  -4.010   0.631  1.00  0.00     0.220 C 
HETATM    3  C3  UNL     1       0.612  -3.915   1.767  1.00  0.00     0.241 C 
HETATM    4  C4  UNL     1       1.566  -2.776   1.488  1.00  0.00     0.270 C 
HETATM    5  O1  UNL     1       0.863  -1.551   1.407  1.00  0.00    -0.326 OA
HETATM    6  C5  UNL     1      -0.093  -1.530   0.376  1.00  0.00     0.180 C 
HETATM    7  O9  UNL     1       1.329  -5.120   1.849  1.00  0.00    -0.215 OA
HETATM    8  O10 UNL     1      -1.312  -5.023   0.897  1.00  0.00    -0.218 OA
HETATM    9  O11 UNL     1      -1.947  -2.757  -0.581  1.00  0.00    -0.218 OA
ENDROOT
BRANCH   4  10
HETATM   10  O7  UNL     1       2.425  -2.665   2.605  1.00  0.00    -0.331 OA
BRANCH  10  11
HETATM   11  C12 UNL     1       3.793  -2.603   2.302  1.00  0.00     0.122 C 
HETATM   12  C24 UNL     1       4.546  -2.868   3.613  1.00  0.00     0.033 C 
BRANCH  11  13
HETATM   13  C13 UNL     1       4.199  -1.249   1.691  1.00  0.00     0.055 C 
BRANCH  13  14
HETATM   14  C14 UNL     1       4.699  -1.372   0.244  1.00  0.00    -0.028 C 
BRANCH  14  15
HETATM   15  C15 UNL     1       5.094  -0.187  -0.634  1.00  0.00    -0.028 C 
HETATM   16  C16 UNL     1       5.452  -0.462  -1.915  1.00  0.00     0.009 C 
HETATM   17  C17 UNL     1       5.704   0.508  -2.837  1.00  0.00     0.169 C 
HETATM   18  C23 UNL     1       5.588  -1.875  -2.470  1.00  0.00     0.034 C 
HETATM   19  C18 UNL     1       5.602   1.975  -2.487  1.00  0.00     0.069 C 
HETATM   20  O8  UNL     1       6.004   0.234  -3.979  1.00  0.00    -0.292 OA
HETATM   21  C19 UNL     1       5.830   2.183  -0.997  1.00  0.00     0.012 C 
HETATM   22  C20 UNL     1       4.936   1.257  -0.144  1.00  0.00     0.019 C 
HETATM   23  C21 UNL     1       5.394   1.540   1.305  1.00  0.00     0.004 C 
HETATM   24  C22 UNL     1       3.458   1.664  -0.296  1.00  0.00     0.004 C 
ENDBRANCH  14  15
ENDBRANCH  13  14
ENDBRANCH  11  13
ENDBRANCH  10  11
ENDBRANCH   4  10
BRANCH   6  25
HETATM   25  C6  UNL     1      -0.838  -0.197   0.414  1.00  0.00     0.177 C 
BRANCH  25  26
HETATM   26  O2  UNL     1      -0.029   0.847  -0.073  1.00  0.00    -0.326 OA
BRANCH  26  27
HETATM   27  C7  UNL     1      -0.767   2.025  -0.338  1.00  0.00     0.270 C 
HETATM   28  C8  UNL     1       0.198   3.175  -0.519  1.00  0.00     0.241 C 
HETATM   29  C9  UNL     1      -0.555   4.416  -0.949  1.00  0.00     0.220 C 
HETATM   30  O6  UNL     1       0.843   3.438   0.701  1.00  0.00    -0.215 OA
HETATM   31  C10 UNL     1      -1.356   4.096  -2.193  1.00  0.00     0.215 C 
HETATM   32  O5  UNL     1       0.355   5.448  -1.232  1.00  0.00    -0.218 OA
HETATM   33  C11 UNL     1      -2.238   2.886  -1.940  1.00  0.00     0.181 C 
HETATM   34  O4  UNL     1      -2.143   5.215  -2.517  1.00  0.00    -0.218 OA
HETATM   35  O3  UNL     1      -1.453   1.786  -1.550  1.00  0.00    -0.326 OA
ENDBRANCH  26  27
ENDBRANCH  25  26
ENDBRANCH   6  25
TORSDOF 8
