REMARK  7 active torsions:
REMARK  status: ('A' for Active; 'I' for Inactive)
REMARK    1  A    between atoms: C4_4  and  O7_18 
REMARK    2  A    between atoms: C5_6  and  C6_7 
REMARK    3  A    between atoms: C6_7  and  O2_8 
REMARK    4  A    between atoms: O2_8  and  C7_9 
REMARK    5  A    between atoms: O7_18  and  C12_19 
REMARK    6  A    between atoms: C12_19  and  C13_20 
REMARK    7  A    between atoms: C14_21  and  C15_22 
ROOT
HETATM    1  C1  UNL     1      -1.399  -2.653   1.071  1.00  0.00     0.215 C 
HETATM    2  C2  UNL     1      -0.612  -3.945   1.101  1.00  0.00     0.220 C 
HETATM    3  C3  UNL     1       0.500  -3.800   2.112  1.00  0.00     0.241 C 
HETATM    4  C4  UNL     1       1.345  -2.606   1.733  1.00  0.00     0.270 C 
HETATM    5  O1  UNL     1       0.562  -1.428   1.755  1.00  0.00    -0.326 OA
HETATM    6  C5  UNL     1      -0.483  -1.458   0.816  1.00  0.00     0.180 C 
HETATM    7  O9  UNL     1       1.286  -4.965   2.096  1.00  0.00    -0.215 OA
HETATM    8  O10 UNL     1      -1.460  -5.001   1.474  1.00  0.00    -0.218 OA
HETATM    9  O11 UNL     1      -2.361  -2.776   0.052  1.00  0.00    -0.218 OA
ENDROOT
BRANCH   4  10
HETATM   10  O7  UNL     1       2.345  -2.426   2.717  1.00  0.00    -0.327 OA
BRANCH  10  11
HETATM   11  C12 UNL     1       3.666  -2.620   2.255  1.00  0.00     0.140 C 
HETATM   12  C24 UNL     1       4.557  -2.868   3.476  1.00  0.00     0.037 C 
BRANCH  11  13
HETATM   13  C13 UNL     1       4.178  -1.426   1.479  1.00  0.00    -0.002 C 
HETATM   14  C14 UNL     1       4.111  -1.313   0.143  1.00  0.00    -0.029 C 
BRANCH  14  15
HETATM   15  C15 UNL     1       4.594  -0.112  -0.653  1.00  0.00     0.023 C 
HETATM   16  C16 UNL     1       5.162  -0.628  -1.999  1.00  0.00     0.011 C 
HETATM   17  C17 UNL     1       4.054  -1.004  -2.999  1.00  0.00     0.065 C 
HETATM   18  C23 UNL     1       6.210   0.295  -2.650  1.00  0.00     0.001 C 
HETATM   19  C18 UNL     1       2.937   0.022  -3.044  1.00  0.00     0.151 C 
HETATM   20  C19 UNL     1       2.364   0.442  -1.702  1.00  0.00     0.065 C 
HETATM   21  O8  UNL     1       2.497   0.442  -4.090  1.00  0.00    -0.296 OA
HETATM   22  C20 UNL     1       3.474   0.960  -0.767  1.00  0.00     0.011 C 
HETATM   23  C21 UNL     1       2.881   1.272   0.625  1.00  0.00     0.001 C 
HETATM   24  C22 UNL     1       3.995   2.312  -1.304  1.00  0.00     0.001 C 
ENDBRANCH  14  15
ENDBRANCH  11  13
ENDBRANCH  10  11
ENDBRANCH   4  10
BRANCH   6  25
HETATM   25  C6  UNL     1      -1.269  -0.150   0.896  1.00  0.00     0.177 C 
BRANCH  25  26
HETATM   26  O2  UNL     1      -0.500   0.917   0.394  1.00  0.00    -0.326 OA
BRANCH  26  27
HETATM   27  C7  UNL     1      -1.285   2.036   0.029  1.00  0.00     0.270 C 
HETATM   28  C8  UNL     1      -0.382   3.240  -0.109  1.00  0.00     0.241 C 
HETATM   29  C9  UNL     1      -1.152   4.412  -0.676  1.00  0.00     0.220 C 
HETATM   30  O6  UNL     1       0.119   3.600   1.154  1.00  0.00    -0.215 OA
HETATM   31  C10 UNL     1      -1.789   3.982  -1.980  1.00  0.00     0.215 C 
HETATM   32  O5  UNL     1      -0.275   5.483  -0.913  1.00  0.00    -0.218 OA
HETATM   33  C11 UNL     1      -2.633   2.741  -1.751  1.00  0.00     0.181 C 
HETATM   34  O4  UNL     1      -2.583   5.040  -2.455  1.00  0.00    -0.218 OA
HETATM   35  O3  UNL     1      -1.841   1.704  -1.227  1.00  0.00    -0.326 OA
ENDBRANCH  26  27
ENDBRANCH  25  26
ENDBRANCH   6  25
TORSDOF 7
