REMARK  8 active torsions:
REMARK  status: ('A' for Active; 'I' for Inactive)
REMARK    1  A    between atoms: C4_4  and  O7_18 
REMARK    2  A    between atoms: C5_6  and  C6_7 
REMARK    3  A    between atoms: C6_7  and  O2_8 
REMARK    4  A    between atoms: O2_8  and  C7_9 
REMARK    5  A    between atoms: O7_18  and  C12_19 
REMARK    6  A    between atoms: C15_22  and  C19_27 
REMARK    7  A    between atoms: C19_27  and  C20_28 
REMARK    8  A    between atoms: C20_28  and  C21_29 
ROOT
HETATM    1  C1  UNL     1      -1.091  -3.372  -1.130  1.00  0.00     0.215 C 
HETATM    2  C2  UNL     1      -0.296  -4.661  -1.147  1.00  0.00     0.220 C 
HETATM    3  C3  UNL     1       0.784  -4.567  -0.095  1.00  0.00     0.241 C 
HETATM    4  C4  UNL     1       1.629  -3.336  -0.333  1.00  0.00     0.270 C 
HETATM    5  O1  UNL     1       0.821  -2.179  -0.318  1.00  0.00    -0.326 OA
HETATM    6  C5  UNL     1      -0.153  -2.187  -1.331  1.00  0.00     0.180 C 
HETATM    7  O10 UNL     1       1.594  -5.713  -0.159  1.00  0.00    -0.215 OA
HETATM    8  O11 UNL     1      -1.147  -5.741  -0.861  1.00  0.00    -0.218 OA
HETATM    9  O12 UNL     1      -2.042  -3.452  -2.162  1.00  0.00    -0.218 OA
ENDROOT
BRANCH   4  10
HETATM   10  O7  UNL     1       2.537  -3.261   0.745  1.00  0.00    -0.329 OA
BRANCH  10  11
HETATM   11  C12 UNL     1       3.338  -2.112   0.770  1.00  0.00     0.152 C 
HETATM   12  C13 UNL     1       2.850  -1.169   1.860  1.00  0.00     0.036 C 
HETATM   13  C14 UNL     1       3.642   0.161   1.895  1.00  0.00     0.017 C 
HETATM   14  C15 UNL     1       5.139  -0.042   1.610  1.00  0.00    -0.050 C 
HETATM   15  C23 UNL     1       3.031   1.110   0.845  1.00  0.00     0.004 C 
HETATM   16  C24 UNL     1       3.367   0.728   3.308  1.00  0.00     0.004 C 
HETATM   17  C16 UNL     1       5.640  -1.263   1.310  1.00  0.00    -0.020 C 
HETATM   18  C17 UNL     1       4.772  -2.485   1.104  1.00  0.00     0.197 C 
HETATM   19  C18 UNL     1       7.105  -1.547   1.051  1.00  0.00     0.028 C 
HETATM   20  O8  UNL     1       4.838  -3.304   2.258  1.00  0.00    -0.216 OA
BRANCH  14  21
HETATM   21  C19 UNL     1       6.026   1.194   1.460  1.00  0.00     0.024 C 
BRANCH  21  22
HETATM   22  C20 UNL     1       6.071   2.216   2.604  1.00  0.00     0.037 C 
BRANCH  22  23
HETATM   23  C21 UNL     1       7.255   3.185   2.530  1.00  0.00     0.153 C 
HETATM   24  C22 UNL     1       7.322   3.975   1.225  1.00  0.00     0.036 C 
HETATM   25  O9  UNL     1       7.145   4.101   3.597  1.00  0.00    -0.223 OA
ENDBRANCH  22  23
ENDBRANCH  21  22
ENDBRANCH  14  21
ENDBRANCH  10  11
ENDBRANCH   4  10
BRANCH   6  26
HETATM   26  C6  UNL     1      -0.894  -0.852  -1.312  1.00  0.00     0.177 C 
BRANCH  26  27
HETATM   27  O2  UNL     1      -0.060   0.154  -1.837  1.00  0.00    -0.326 OA
BRANCH  27  28
HETATM   28  C7  UNL     1      -0.710   1.397  -2.008  1.00  0.00     0.270 C 
HETATM   29  C8  UNL     1       0.343   2.430  -2.342  1.00  0.00     0.241 C 
HETATM   30  C9  UNL     1      -0.319   3.755  -2.647  1.00  0.00     0.220 C 
HETATM   31  O6  UNL     1       1.205   2.598  -1.248  1.00  0.00    -0.215 OA
HETATM   32  C10 UNL     1      -1.306   3.542  -3.774  1.00  0.00     0.215 C 
HETATM   33  O5  UNL     1       0.653   4.691  -3.038  1.00  0.00    -0.218 OA
HETATM   34  C11 UNL     1      -2.278   2.436  -3.402  1.00  0.00     0.181 C 
HETATM   35  O4  UNL     1      -1.990   4.751  -3.993  1.00  0.00    -0.218 OA
HETATM   36  O3  UNL     1      -1.584   1.248  -3.108  1.00  0.00    -0.326 OA
ENDBRANCH  27  28
ENDBRANCH  26  27
ENDBRANCH   6  26
TORSDOF 8
