REMARK  3 active torsions:
REMARK  status: ('A' for Active; 'I' for Inactive)
REMARK    1  A    between atoms: C12_14  and  O4_19 
REMARK    2  A    between atoms: O4_19  and  C16_20 
REMARK    3  A    between atoms: C20_24  and  C21_26 
ROOT
HETATM    1  C1  UNL     1       3.542   3.476  -0.067  1.00  0.00    -0.004 A 
HETATM    2  C2  UNL     1       3.604   2.139   0.012  1.00  0.00     0.006 A 
HETATM    3  C3  UNL     1       2.566   1.388  -0.409  1.00  0.00     0.045 A 
HETATM    4  C4  UNL     1       1.459   2.015  -0.888  1.00  0.00     0.104 A 
HETATM    5  C5  UNL     1       1.413   3.371  -0.954  1.00  0.00     0.058 A 
HETATM    6  C6  UNL     1       2.467   4.115  -0.552  1.00  0.00    -0.017 A 
HETATM    7  C7  UNL     1       2.532   5.633  -0.598  1.00  0.00     0.031 C 
HETATM    8  C8  UNL     1       0.287   3.984  -1.429  1.00  0.00     0.199 A 
HETATM    9  C9  UNL     1      -0.774   3.224  -1.795  1.00  0.00     0.062 A 
HETATM   10  C10 UNL     1      -0.717   1.891  -1.714  1.00  0.00     0.081 A 
HETATM   11  O1  UNL     1       0.400   1.251  -1.296  1.00  0.00    -0.311 OA
HETATM   12  C11 UNL     1      -1.894   1.023  -2.085  1.00  0.00     0.058 C 
HETATM   13  O2  UNL     1       0.136   5.180  -1.539  1.00  0.00    -0.286 OA
HETATM   14  C12 UNL     1       2.681   0.035  -0.328  1.00  0.00     0.101 A 
HETATM   15  C13 UNL     1       3.845  -0.480   0.114  1.00  0.00     0.052 A 
HETATM   16  C14 UNL     1       4.872   0.254   0.560  1.00  0.00     0.133 A 
HETATM   17  C15 UNL     1       4.727   1.583   0.497  1.00  0.00     0.028 A 
HETATM   18  O3  UNL     1       6.018  -0.314   1.021  1.00  0.00    -0.190 OA
ENDROOT
BRANCH  14  19
HETATM   19  O4  UNL     1       1.745  -0.853  -0.801  1.00  0.00    -0.303 OA
BRANCH  19  20
HETATM   20  C16 UNL     1       0.987  -1.546   0.175  1.00  0.00     0.274 C 
HETATM   21  C17 UNL     1       1.395  -3.004   0.168  1.00  0.00     0.241 C 
HETATM   22  C18 UNL     1       0.377  -3.894   0.847  1.00  0.00     0.220 C 
HETATM   23  O9  UNL     1       1.520  -3.438  -1.167  1.00  0.00    -0.215 OA
HETATM   24  C19 UNL     1      -1.017  -3.566   0.357  1.00  0.00     0.215 C 
HETATM   25  O8  UNL     1       0.659  -5.234   0.521  1.00  0.00    -0.218 OA
HETATM   26  C20 UNL     1      -1.302  -2.077   0.462  1.00  0.00     0.184 C 
HETATM   27  O7  UNL     1      -1.942  -4.315   1.107  1.00  0.00    -0.218 OA
HETATM   28  O5  UNL     1      -0.341  -1.369  -0.273  1.00  0.00    -0.326 OA
BRANCH  26  29
HETATM   29  C21 UNL     1      -1.456  -1.562   1.888  1.00  0.00     0.214 C 
HETATM   30  O6  UNL     1      -1.682  -0.167   1.880  1.00  0.00    -0.218 OA
ENDBRANCH  26  29
ENDBRANCH  19  20
ENDBRANCH  14  19
TORSDOF 3
