REMARK  9 active torsions:
REMARK  status: ('A' for Active; 'I' for Inactive)
REMARK    1  A    between atoms: C8_8  and  C27_30 
REMARK    2  A    between atoms: C15_16  and  C18_19 
REMARK    3  A    between atoms: C18_19  and  C19_20 
REMARK    4  A    between atoms: C19_20  and  C20_21 
REMARK    5  A    between atoms: C20_21  and  C21_22 
REMARK    6  A    between atoms: C22_23  and  C24_25 
REMARK    7  A    between atoms: C35_40  and  C36_42 
REMARK    8  A    between atoms: C40_50  and  O12_53 
REMARK    9  A    between atoms: O12_53  and  C42_54 
ROOT
HETATM    1  C1  UNL     1       3.227  -1.200  -3.577  1.00  0.00     0.030 C 
HETATM    2  C2  UNL     1       2.549  -1.931  -2.349  1.00  0.00     0.118 C 
HETATM    3  C3  UNL     1       3.403  -3.155  -1.965  1.00  0.00     0.025 C 
HETATM    4  C4  UNL     1       4.873  -2.627  -1.927  1.00  0.00     0.008 C 
HETATM    5  C5  UNL     1       5.263  -0.645  -2.003  1.00  0.00     0.012 C 
HETATM    6  C6  UNL     1       4.759  -0.763  -3.538  1.00  0.00     0.006 C 
HETATM    7  C7  UNL     1       6.796   0.232  -1.070  1.00  0.00    -0.055 C 
HETATM    8  C8  UNL     1       7.854  -0.549   0.562  1.00  0.00     0.133 A 
HETATM    9  C9  UNL     1       7.292  -2.517   0.614  1.00  0.00     0.166 C 
HETATM   10  C10 UNL     1       6.084  -3.562  -0.584  1.00  0.00     0.034 C 
HETATM   11  O1  UNL     1       6.770  -2.939   1.884  1.00  0.00    -0.223 OA
HETATM   12  C11 UNL     1       9.374   0.200   0.741  1.00  0.00     0.015 C 
HETATM   13  C12 UNL     1       9.028   1.748   0.687  1.00  0.00     0.004 C 
HETATM   14  C13 UNL     1       8.528   2.278  -0.676  1.00  0.00     0.004 C 
HETATM   15  C14 UNL     1       7.097   1.822  -1.107  1.00  0.00     0.018 C 
HETATM   16  C15 UNL     1      10.199   2.469   1.398  1.00  0.00     0.028 C 
HETATM   17  C16 UNL     1      10.478   1.499   2.568  1.00  0.00     0.003 C 
HETATM   18  C17 UNL     1      10.177   0.068   2.100  1.00  0.00     0.001 C 
HETATM   19  C26 UNL     1      10.628  -0.047  -0.195  1.00  0.00     0.001 C 
HETATM   20  C28 UNL     1       4.428   0.778  -2.035  1.00  0.00     0.004 C 
HETATM   21  C29 UNL     1       3.167  -4.216  -3.108  1.00  0.00     0.002 C 
HETATM   22  C30 UNL     1       3.043  -4.042  -0.747  1.00  0.00     0.002 C 
HETATM   23  O5  UNL     1       2.353  -0.985  -1.331  1.00  0.00    -0.332 OA
HETATM   24  C31 UNL     1       1.838  -1.365  -0.073  1.00  0.00     0.267 C 
HETATM   25  C32 UNL     1       2.721  -0.877   1.080  1.00  0.00     0.207 C 
HETATM   26  C33 UNL     1       2.020  -1.178   2.392  1.00  0.00     0.217 C 
HETATM   27  C34 UNL     1       0.639  -0.548   2.369  1.00  0.00     0.215 C 
HETATM   28  C35 UNL     1      -0.132  -1.003   1.137  1.00  0.00     0.184 C 
HETATM   29  O6  UNL     1       0.594  -0.694  -0.026  1.00  0.00    -0.326 OA
HETATM   30  O8  UNL     1      -0.050  -0.912   3.541  1.00  0.00    -0.218 OA
HETATM   31  O9  UNL     1       2.778  -0.630   3.446  1.00  0.00    -0.218 OA
HETATM   32  O10 UNL     1       4.033  -1.415   1.146  1.00  0.00    -0.324 OA
HETATM   33  C37 UNL     1       4.882  -0.925   0.112  1.00  0.00     0.268 C 
HETATM   34  C38 UNL     1       6.280  -0.660   0.323  1.00  0.00     0.219 A 
HETATM   35  C39 UNL     1       7.868  -1.326  -0.863  1.00  0.00     0.198 A 
HETATM   36  C40 UNL     1       8.087  -2.510  -1.754  1.00  0.00     0.185 C 
HETATM   37  C41 UNL     1       6.673  -2.143  -1.879  1.00  0.00     0.178 C 
HETATM   38  O11 UNL     1       5.493  -1.954  -0.508  1.00  0.00    -0.326 OA
HETATM   39  O14 UNL     1       8.732  -0.476  -1.694  1.00  0.00    -0.220 OA
HETATM   40  O15 UNL     1       6.060   0.713   0.824  1.00  0.00    -0.217 OA
ENDROOT
BRANCH  16  41
HETATM   41  C18 UNL     1      10.114   3.951   1.864  1.00  0.00     0.127 C 
HETATM   42  C25 UNL     1       8.748   4.634   1.724  1.00  0.00     0.033 C 
HETATM   43  O3  UNL     1      10.401   4.036   3.240  1.00  0.00    -0.226 OA
BRANCH  41  44
HETATM   44  C19 UNL     1      11.194   4.801   1.160  1.00  0.00     0.035 C 
BRANCH  44  45
HETATM   45  C20 UNL     1      12.636   4.450   1.585  1.00  0.00     0.028 C 
BRANCH  45  46
HETATM   46  C21 UNL     1      13.688   5.206   0.811  1.00  0.00    -0.032 C 
HETATM   47  C22 UNL     1      14.977   4.840   0.685  1.00  0.00    -0.015 C 
HETATM   48  C23 UNL     1      15.568   3.604   1.326  1.00  0.00     0.029 C 
BRANCH  47  49
HETATM   49  C24 UNL     1      15.979   5.643  -0.115  1.00  0.00     0.204 C 
HETATM   50  O2  UNL     1      15.418   6.773  -0.768  1.00  0.00    -0.216 OA
ENDBRANCH  47  49
ENDBRANCH  45  46
ENDBRANCH  44  45
ENDBRANCH  41  44
ENDBRANCH  16  41
BRANCH   8  51
HETATM   51  C27 UNL     1       7.673  -0.340   2.177  1.00  0.00     0.216 C 
HETATM   52  O4  UNL     1       7.274   0.608   2.818  1.00  0.00    -0.288 OA
ENDBRANCH   8  51
BRANCH  36  53
HETATM   53  O12 UNL     1       8.533  -3.773  -1.327  1.00  0.00    -0.299 OA
BRANCH  53  54
HETATM   54  C42 UNL     1       9.870  -3.986  -1.331  1.00  0.00     0.273 C 
HETATM   55  C43 UNL     1      10.192  -5.320  -0.689  1.00  0.00     0.106 C 
HETATM   56  O13 UNL     1      10.706  -3.221  -1.754  1.00  0.00    -0.264 OA
ENDBRANCH  53  54
ENDBRANCH  36  53
BRANCH  28  57
HETATM   57  C36 UNL     1      -1.497  -0.339   1.045  1.00  0.00     0.214 C 
HETATM   58  O7  UNL     1      -2.225  -0.903  -0.028  1.00  0.00    -0.218 OA
ENDBRANCH  28  57
TORSDOF 9
