REMARK  5 active torsions:
REMARK  status: ('A' for Active; 'I' for Inactive)
REMARK    1  A    between atoms: C3_3  and  C40_45 
REMARK    2  A    between atoms: C7_7  and  C13_13 
REMARK    3  A    between atoms: C13_13  and  C14_14 
REMARK    4  A    between atoms: C14_14  and  C15_15 
REMARK    5  A    between atoms: C29_31  and  C31_33 
ROOT
HETATM    1  C15 UNL     1       4.432  -0.749  -1.984  1.00  0.00    -0.019 C 
HETATM    2  C16 UNL     1       5.493   0.109  -1.336  1.00  0.00     0.143 C 
HETATM    3  O1  UNL     1       5.214   1.363  -1.927  1.00  0.00    -0.350 OA
HETATM    4  C17 UNL     1       5.258   0.919  -3.267  1.00  0.00     0.142 C 
HETATM    5  C18 UNL     1       4.305  -0.251  -3.218  1.00  0.00    -0.003 C 
HETATM    6  C19 UNL     1       6.704   0.389  -3.361  1.00  0.00     0.065 C 
HETATM    7  C20 UNL     1       6.902  -0.174  -1.907  1.00  0.00     0.115 C 
HETATM    8  C21 UNL     1       8.096   0.405  -1.078  1.00  0.00     0.043 C 
HETATM    9  C22 UNL     1       8.634   1.711  -1.736  1.00  0.00     0.027 C 
HETATM   10  C23 UNL     1       8.882   1.610  -3.242  1.00  0.00    -0.031 C 
HETATM   11  C24 UNL     1       7.657   1.485  -3.795  1.00  0.00    -0.028 C 
HETATM   12  C25 UNL     1       9.768   2.405  -0.955  1.00  0.00     0.029 C 
HETATM   13  C26 UNL     1       9.224   2.800   0.434  1.00  0.00     0.093 C 
HETATM   14  C27 UNL     1       8.872   1.511   1.189  1.00  0.00     0.027 C 
HETATM   15  C28 UNL     1       7.786   0.714   0.420  1.00  0.00     0.006 C 
HETATM   16  O2  UNL     1      10.283   3.520   0.983  1.00  0.00    -0.357 OA
HETATM   17  C29 UNL     1      10.788   4.343  -0.060  1.00  0.00     0.139 C 
HETATM   18  C30 UNL     1      10.224   3.808  -1.392  1.00  0.00     0.037 C 
HETATM   19  C35 UNL     1       7.994   3.743   0.511  1.00  0.00     0.030 C 
HETATM   20  C36 UNL     1      11.068   1.557  -0.951  1.00  0.00     0.003 C 
HETATM   21  C37 UNL     1       9.069  -0.792  -1.063  1.00  0.00     0.153 C 
HETATM   22  O4  UNL     1       8.376  -1.947  -1.430  1.00  0.00    -0.302 OA
HETATM   23  C38 UNL     1       7.196  -1.665  -2.010  1.00  0.00     0.274 C 
HETATM   24  O5  UNL     1       6.508  -2.503  -2.550  1.00  0.00    -0.264 OA
ENDROOT
BRANCH   1  25
HETATM   25  C14 UNL     1       3.732  -1.926  -1.366  1.00  0.00     0.024 C 
BRANCH  25  26
HETATM   26  C13 UNL     1       3.119  -1.611   0.011  1.00  0.00     0.004 C 
BRANCH  26  27
HETATM   27  C7  UNL     1       2.299  -2.738   0.740  1.00  0.00     0.001 C 
HETATM   28  C5  UNL     1       0.810  -2.268   0.863  1.00  0.00     0.004 C 
HETATM   29  C4  UNL     1      -0.174  -2.997   1.834  1.00  0.00     0.024 C 
HETATM   30  C6  UNL     1       0.129  -2.018  -0.493  1.00  0.00     0.005 C 
HETATM   31  C3  UNL     1      -1.495  -2.197   1.915  1.00  0.00     0.037 C 
HETATM   32  C10 UNL     1       0.550  -3.083   3.198  1.00  0.00     0.004 C 
HETATM   33  C39 UNL     1      -0.620  -4.410   1.389  1.00  0.00     0.005 C 
HETATM   34  C2  UNL     1      -1.831  -1.332   0.935  1.00  0.00    -0.024 C 
HETATM   35  C1  UNL     1      -1.018  -1.027  -0.293  1.00  0.00     0.026 C 
HETATM   36  C9  UNL     1       1.960  -3.680   3.116  1.00  0.00     0.000 C 
HETATM   37  C8  UNL     1       2.883  -2.887   2.178  1.00  0.00     0.000 C 
HETATM   38  C11 UNL     1       4.297  -3.502   2.236  1.00  0.00     0.000 C 
HETATM   39  C12 UNL     1       2.419  -4.076  -0.021  1.00  0.00     0.000 C 
BRANCH  31  40
HETATM   40  C40 UNL     1      -2.405  -2.361   2.922  1.00  0.00     0.206 C 
HETATM   41  O6  UNL     1      -2.264  -3.217   3.956  1.00  0.00    -0.644 OA
HETATM   42  O7  UNL     1      -3.446  -1.742   2.948  1.00  0.00    -0.644 OA
ENDBRANCH  31  40
ENDBRANCH  26  27
ENDBRANCH  25  26
ENDBRANCH   1  25
BRANCH  17  43
HETATM   43  C31 UNL     1      10.544   5.813   0.138  1.00  0.00     0.031 A 
HETATM   44  C32 UNL     1       9.958   6.439   1.167  1.00  0.00     0.121 A 
HETATM   45  O3  UNL     1       9.918   7.658   1.000  1.00  0.00    -0.303 OA
HETATM   46  C33 UNL     1      10.447   7.913  -0.082  1.00  0.00     0.122 A 
HETATM   47  C34 UNL     1      10.876   6.806  -0.700  1.00  0.00     0.027 A 
ENDBRANCH  17  43
TORSDOF 5
