REMARK  7 active torsions:
REMARK  status: ('A' for Active; 'I' for Inactive)
REMARK    1  A    between atoms: C7_8  and  C31_41 
REMARK    2  A    between atoms: C8_9  and  O3_12 
REMARK    3  A    between atoms: O3_12  and  C10_13 
REMARK    4  A    between atoms: C12_15  and  C26_34 
REMARK    5  A    between atoms: C13_16  and  C16_19 
REMARK    6  A    between atoms: C17_20  and  O4_21 
REMARK    7  A    between atoms: C26_34  and  C27_35 
ROOT
HETATM    1  C10 UNL     1       6.383   0.368   0.744  1.00  0.00     0.122 A 
HETATM    2  C11 UNL     1       7.650  -0.090   0.803  1.00  0.00     0.153 A 
HETATM    3  C12 UNL     1       8.732   0.697   0.563  1.00  0.00     0.029 A 
HETATM    4  C13 UNL     1       8.590   2.033   0.263  1.00  0.00     0.027 A 
HETATM    5  C14 UNL     1       7.300   2.418   0.152  1.00  0.00     0.004 A 
HETATM    6  C15 UNL     1       6.235   1.645   0.385  1.00  0.00     0.026 A 
HETATM    7  O9  UNL     1       7.780  -1.409   1.121  1.00  0.00    -0.188 OA
ENDROOT
BRANCH   1   8
HETATM    8  O3  UNL     1       5.317  -0.451   1.028  1.00  0.00    -0.296 OA
BRANCH   8   9
HETATM    9  C8  UNL     1       4.257  -0.629   0.101  1.00  0.00     0.333 C 
HETATM   10  C7  UNL     1       3.988  -2.119   0.042  1.00  0.00     0.300 C 
HETATM   11  O1  UNL     1       2.876  -2.380  -0.769  1.00  0.00    -0.300 OA
HETATM   12  O13 UNL     1       3.483  -2.518   1.313  1.00  0.00    -0.184 OA
HETATM   13  C5  UNL     1       1.747  -1.679  -0.436  1.00  0.00     0.104 A 
HETATM   14  C4  UNL     1       1.752  -0.495   0.222  1.00  0.00     0.088 A 
HETATM   15  C6  UNL     1       0.563  -2.262  -0.698  1.00  0.00     0.052 A 
HETATM   16  C3  UNL     1       0.584   0.106   0.552  1.00  0.00     0.138 A 
HETATM   17  C9  UNL     1       2.954   0.078   0.521  1.00  0.00     0.236 C 
HETATM   18  C2  UNL     1      -0.565  -0.524   0.249  1.00  0.00     0.055 A 
HETATM   19  O14 UNL     1       0.474   1.294   1.216  1.00  0.00    -0.190 OA
HETATM   20  C1  UNL     1      -0.612  -1.708  -0.374  1.00  0.00     0.135 A 
HETATM   21  O15 UNL     1      -1.789  -2.335  -0.646  1.00  0.00    -0.190 OA
HETATM   22  O2  UNL     1       3.075   1.145   1.078  1.00  0.00    -0.286 OA
HETATM   23  O10 UNL     1       4.623  -0.156  -1.185  1.00  0.00    -0.181 OA
BRANCH  10  24
HETATM   24  C31 UNL     1       5.144  -3.048  -0.303  1.00  0.00     0.039 A 
HETATM   25  C32 UNL     1       6.280  -2.626  -0.882  1.00  0.00     0.030 A 
HETATM   26  C33 UNL     1       7.348  -3.419  -1.055  1.00  0.00     0.156 A 
HETATM   27  C34 UNL     1       7.283  -4.706  -0.680  1.00  0.00     0.156 A 
HETATM   28  O12 UNL     1       8.508  -2.913  -1.546  1.00  0.00    -0.188 OA
HETATM   29  C35 UNL     1       6.132  -5.165  -0.163  1.00  0.00     0.029 A 
HETATM   30  O11 UNL     1       8.363  -5.514  -0.830  1.00  0.00    -0.188 OA
HETATM   31  C36 UNL     1       5.082  -4.352   0.025  1.00  0.00     0.003 A 
ENDBRANCH  10  24
ENDBRANCH   8   9
ENDBRANCH   1   8
BRANCH   3  32
HETATM   32  C26 UNL     1      10.114   0.026   0.679  1.00  0.00     0.002 C 
BRANCH  32  33
HETATM   33  C27 UNL     1      10.341  -1.440   0.978  1.00  0.00    -0.008 C 
HETATM   34  C28 UNL     1      10.929  -2.361   0.189  1.00  0.00    -0.044 C 
HETATM   35  C29 UNL     1      11.486  -2.111  -1.194  1.00  0.00     0.026 C 
HETATM   36  C30 UNL     1      11.171  -3.765   0.695  1.00  0.00     0.026 C 
ENDBRANCH  32  33
ENDBRANCH   3  32
BRANCH   4  37
HETATM   37  C16 UNL     1       9.634   2.918   0.100  1.00  0.00     0.125 A 
HETATM   38  C17 UNL     1       9.571   4.264  -0.121  1.00  0.00     0.156 A 
HETATM   39  C19 UNL     1      10.713   5.008  -0.296  1.00  0.00     0.224 A 
HETATM   40  C20 UNL     1      11.954   4.459  -0.211  1.00  0.00     0.089 A 
HETATM   41  O8  UNL     1      10.601   6.192  -0.524  1.00  0.00    -0.284 OA
HETATM   42  C21 UNL     1      12.001   3.144   0.050  1.00  0.00     0.107 A 
HETATM   43  C25 UNL     1      13.100   5.164  -0.369  1.00  0.00     0.138 A 
HETATM   44  O5  UNL     1      10.887   2.395   0.224  1.00  0.00    -0.305 OA
HETATM   45  C22 UNL     1      13.195   2.534   0.148  1.00  0.00     0.052 A 
HETATM   46  C23 UNL     1      14.352   3.191  -0.001  1.00  0.00     0.135 A 
HETATM   47  C24 UNL     1      14.267   4.504  -0.256  1.00  0.00     0.055 A 
HETATM   48  O7  UNL     1      15.554   2.565   0.106  1.00  0.00    -0.190 OA
HETATM   49  O6  UNL     1      13.182   6.504  -0.621  1.00  0.00    -0.190 OA
BRANCH  38  50
HETATM   50  O4  UNL     1       8.432   5.013  -0.319  1.00  0.00    -0.323 OA
HETATM   51  C18 UNL     1       7.936   5.635   0.848  1.00  0.00     0.182 C 
ENDBRANCH  38  50
ENDBRANCH   4  37
TORSDOF 7
