REMARK  4 active torsions:
REMARK  status: ('A' for Active; 'I' for Inactive)
REMARK    1  A    between atoms: C7_7  and  C9_10 
REMARK    2  A    between atoms: C9_10  and  C10_11 
REMARK    3  A    between atoms: C12_14  and  O2_18 
REMARK    4  A    between atoms: C12_14  and  C15_20 
ROOT
HETATM    1  C10 UNL     1       2.370  -0.879  -0.707  1.00  0.00     0.288 C 
HETATM    2  C11 UNL     1       2.519   0.229   0.329  1.00  0.00     0.304 C 
HETATM    3  N2  UNL     1       1.360   0.623   0.923  1.00  0.00    -0.202 NA
HETATM    4  C12 UNL     1       0.060  -0.023   0.684  1.00  0.00     0.253 C 
HETATM    5  C13 UNL     1      -0.064  -0.356  -0.805  1.00  0.00     0.300 C 
HETATM    6  N3  UNL     1       1.093  -0.733  -1.414  1.00  0.00    -0.199 NA
HETATM    7  O1  UNL     1      -1.101  -0.335  -1.423  1.00  0.00    -0.266 OA
HETATM    8  O3  UNL     1       3.562   0.744   0.650  1.00  0.00    -0.266 OA
HETATM    9  O4  UNL     1       2.386  -2.145  -0.062  1.00  0.00    -0.191 OA
ENDROOT
BRANCH   1  10
HETATM   10  C9  UNL     1       3.490  -0.846  -1.754  1.00  0.00     0.092 C 
BRANCH  10  11
HETATM   11  C7  UNL     1       4.885  -0.964  -1.205  1.00  0.00     0.003 A 
HETATM   12  C5  UNL     1       5.852  -0.032  -1.194  1.00  0.00     0.015 A 
HETATM   13  C4  UNL     1       6.924  -0.587  -0.611  1.00  0.00     0.081 A 
HETATM   14  C6  UNL     1       5.894   1.233  -1.632  1.00  0.00     0.001 A 
HETATM   15  C3  UNL     1       8.066   0.090  -0.444  1.00  0.00     0.019 A 
HETATM   16  N1  UNL     1       6.627  -1.778  -0.294  1.00  0.00    -0.244 NA
HETATM   17  C2  UNL     1       8.109   1.359  -0.884  1.00  0.00     0.002 A 
HETATM   18  C1  UNL     1       7.037   1.922  -1.470  1.00  0.00     0.000 A 
HETATM   19  C8  UNL     1       5.432  -2.047  -0.627  1.00  0.00     0.095 A 
ENDBRANCH  10  11
ENDBRANCH   1  10
BRANCH   4  20
HETATM   20  O2  UNL     1       0.055  -1.206   1.467  1.00  0.00    -0.329 OA
HETATM   21  C14 UNL     1      -1.057  -2.054   1.285  1.00  0.00     0.177 C 
ENDBRANCH   4  20
BRANCH   4  22
HETATM   22  C15 UNL     1      -1.037   0.971   1.124  1.00  0.00     0.056 C 
HETATM   23  C16 UNL     1      -1.055   1.199   2.648  1.00  0.00     0.005 C 
HETATM   24  C17 UNL     1      -0.891   2.336   0.418  1.00  0.00     0.005 C 
ENDBRANCH   4  22
TORSDOF 4
