REMARK  4 active torsions:
REMARK  status: ('A' for Active; 'I' for Inactive)
REMARK    1  A    between atoms: C7_7  and  C9_10 
REMARK    2  A    between atoms: C9_10  and  C10_11 
REMARK    3  A    between atoms: C12_14  and  S1_18 
REMARK    4  A    between atoms: C12_14  and  C15_20 
ROOT
HETATM    1  C10 UNL     1       2.640  -1.625  -0.155  1.00  0.00     0.288 C 
HETATM    2  C11 UNL     1       2.941  -0.708   1.011  1.00  0.00     0.302 C 
HETATM    3  N2  UNL     1       1.979   0.174   1.387  1.00  0.00    -0.219 NA
HETATM    4  C12 UNL     1       0.620   0.258   0.840  1.00  0.00     0.198 C 
HETATM    5  C13 UNL     1       0.288  -0.767  -0.243  1.00  0.00     0.284 C 
HETATM    6  N3  UNL     1       1.230  -1.707  -0.519  1.00  0.00    -0.201 NA
HETATM    7  O1  UNL     1      -0.768  -0.793  -0.829  1.00  0.00    -0.268 OA
HETATM    8  O2  UNL     1       4.005  -0.767   1.576  1.00  0.00    -0.266 OA
HETATM    9  O3  UNL     1       3.083  -2.910   0.247  1.00  0.00    -0.191 OA
ENDROOT
BRANCH   1  10
HETATM   10  C9  UNL     1       3.455  -1.224  -1.388  1.00  0.00     0.092 C 
BRANCH  10  11
HETATM   11  C7  UNL     1       4.934  -1.380  -1.167  1.00  0.00     0.003 A 
HETATM   12  C5  UNL     1       5.845  -0.423  -0.928  1.00  0.00     0.015 A 
HETATM   13  C4  UNL     1       7.029  -1.038  -0.797  1.00  0.00     0.081 A 
HETATM   14  C6  UNL     1       5.749   0.907  -0.813  1.00  0.00     0.001 A 
HETATM   15  C3  UNL     1       8.153  -0.358  -0.548  1.00  0.00     0.019 A 
HETATM   16  N1  UNL     1       6.845  -2.283  -0.951  1.00  0.00    -0.244 NA
HETATM   17  C2  UNL     1       8.060   0.978  -0.433  1.00  0.00     0.002 A 
HETATM   18  C1  UNL     1       6.874   1.601  -0.565  1.00  0.00     0.000 A 
HETATM   19  C8  UNL     1       5.621  -2.534  -1.175  1.00  0.00     0.095 A 
ENDBRANCH  10  11
ENDBRANCH   1  10
BRANCH   4  20
HETATM   20  S1  UNL     1      -0.294  -0.217   2.351  1.00  0.00    -0.110 SA
HETATM   21  C14 UNL     1      -2.025   0.035   1.883  1.00  0.00     0.071 C 
ENDBRANCH   4  20
BRANCH   4  22
HETATM   22  C15 UNL     1       0.345   1.698   0.346  1.00  0.00     0.039 C 
HETATM   23  C16 UNL     1       0.520   2.773   1.436  1.00  0.00     0.003 C 
HETATM   24  C17 UNL     1       1.257   2.048  -0.847  1.00  0.00     0.003 C 
ENDBRANCH   4  22
TORSDOF 4
