REMARK  5 active torsions:
REMARK  status: ('A' for Active; 'I' for Inactive)
REMARK    1  A    between atoms: C7_7  and  C9_10 
REMARK    2  A    between atoms: C9_10  and  C10_11 
REMARK    3  A    between atoms: C10_11  and  S1_12 
REMARK    4  A    between atoms: C13_16  and  S2_20 
REMARK    5  A    between atoms: C13_16  and  C16_22 
ROOT
HETATM    1  C10 UNL     1       2.834  -1.122   0.028  1.00  0.00     0.202 A 
HETATM    2  C12 UNL     1       2.788  -0.438   1.389  1.00  0.00     0.283 A 
HETATM    3  N2  UNL     1       1.622   0.148   1.762  1.00  0.00    -0.220 NA
HETATM    4  C13 UNL     1       0.404   0.280   0.962  1.00  0.00     0.198 A 
HETATM    5  C14 UNL     1       0.453  -0.385  -0.408  1.00  0.00     0.282 A 
HETATM    6  N3  UNL     1       1.605  -1.011  -0.764  1.00  0.00    -0.220 NA
HETATM    7  O1  UNL     1      -0.458  -0.336  -1.200  1.00  0.00    -0.268 OA
HETATM    8  O2  UNL     1       3.736  -0.380   2.136  1.00  0.00    -0.268 OA
ENDROOT
BRANCH   1   9
HETATM    9  C9  UNL     1       3.980  -0.523  -0.814  1.00  0.00     0.070 C 
BRANCH   9  10
HETATM   10  C7  UNL     1       5.415  -0.705  -0.393  1.00  0.00     0.002 A 
HETATM   11  C5  UNL     1       6.471  -0.077  -0.938  1.00  0.00     0.015 A 
HETATM   12  C4  UNL     1       7.570  -0.508  -0.304  1.00  0.00     0.081 A 
HETATM   13  C6  UNL     1       6.564   0.823  -1.925  1.00  0.00     0.001 A 
HETATM   14  C3  UNL     1       8.791  -0.066  -0.624  1.00  0.00     0.019 A 
HETATM   15  N1  UNL     1       7.203  -1.347   0.572  1.00  0.00    -0.244 NA
HETATM   16  C2  UNL     1       8.886   0.838  -1.614  1.00  0.00     0.002 A 
HETATM   17  C1  UNL     1       7.786   1.276  -2.255  1.00  0.00     0.000 A 
HETATM   18  C8  UNL     1       5.942  -1.495   0.558  1.00  0.00     0.095 A 
ENDBRANCH   9  10
ENDBRANCH   1   9
BRANCH   1  19
HETATM   19  S1  UNL     1       2.910  -2.924   0.302  1.00  0.00    -0.110 SA
HETATM   20  C11 UNL     1       3.361  -3.543  -1.341  1.00  0.00     0.071 C 
ENDBRANCH   1  19
BRANCH   4  21
HETATM   21  S2  UNL     1      -0.756  -0.660   2.015  1.00  0.00    -0.110 SA
HETATM   22  C15 UNL     1      -2.377  -0.196   1.354  1.00  0.00     0.071 C 
ENDBRANCH   4  21
BRANCH   4  23
HETATM   23  C16 UNL     1       0.079   1.786   0.800  1.00  0.00     0.039 C 
HETATM   24  C17 UNL     1      -0.018   2.546   2.138  1.00  0.00     0.003 C 
HETATM   25  C18 UNL     1       1.131   2.484  -0.088  1.00  0.00     0.003 C 
ENDBRANCH   4  23
TORSDOF 5
