REMARK  1 active torsions:
REMARK  status: ('A' for Active; 'I' for Inactive)
REMARK    1  A    between atoms: C8_8  and  C11_12 
ROOT
HETATM    1  C1  UNL     1      -1.589   0.746  -1.449  1.00  0.00     0.000 C 
HETATM    2  C2  UNL     1      -2.222  -0.112  -0.352  1.00  0.00     0.000 C 
HETATM    3  C3  UNL     1      -1.216  -1.113   0.267  1.00  0.00     0.001 C 
HETATM    4  C4  UNL     1       0.231  -0.522   0.318  1.00  0.00     0.011 C 
HETATM    5  C5  UNL     1       0.300   1.022   0.309  1.00  0.00     0.019 C 
HETATM    6  C6  UNL     1      -0.423   1.602  -0.928  1.00  0.00     0.004 C 
HETATM    7  C7  UNL     1       1.753   1.474   0.259  1.00  0.00    -0.021 C 
HETATM    8  C8  UNL     1       2.788   0.771  -0.231  1.00  0.00     0.073 C 
HETATM    9  C9  UNL     1       2.580  -0.469  -0.748  1.00  0.00     0.176 C 
HETATM   10  C10 UNL     1       1.180  -1.056  -0.772  1.00  0.00     0.070 C 
HETATM   11  O1  UNL     1       3.489  -1.121  -1.213  1.00  0.00    -0.291 OA
HETATM   12  C12 UNL     1      -0.263   1.634   1.616  1.00  0.00     0.004 C 
HETATM   13  C13 UNL     1      -1.695  -1.484   1.694  1.00  0.00     0.000 C 
HETATM   14  C14 UNL     1      -1.301  -2.436  -0.537  1.00  0.00     0.000 C 
ENDROOT
BRANCH   8  15
HETATM   15  C11 UNL     1       4.038   1.314  -0.214  1.00  0.00     0.237 C 
HETATM   16  O2  UNL     1       4.302   2.409   0.226  1.00  0.00    -0.283 OA
ENDBRANCH   8  15
TORSDOF 1
