REMARK  4 active torsions:
REMARK  status: ('A' for Active; 'I' for Inactive)
REMARK    1  A    between atoms: C16_17  and  C17_18 
REMARK    2  A    between atoms: C17_18  and  C18_19 
REMARK    3  A    between atoms: C19_20  and  C20_21 
REMARK    4  A    between atoms: C20_21  and  C21_22 
ROOT
HETATM    1  C1  UNL     1       3.978  -3.599   1.463  1.00  0.00     0.182 C 
HETATM    2  C2  UNL     1       3.897  -4.778   0.512  1.00  0.00     0.183 C 
HETATM    3  C3  UNL     1       3.418  -4.291  -0.853  1.00  0.00     0.043 C 
HETATM    4  C4  UNL     1       4.341  -3.209  -1.448  1.00  0.00     0.065 C 
HETATM    5  C5  UNL     1       4.530  -2.002  -0.505  1.00  0.00     0.013 C 
HETATM    6  C6  UNL     1       4.883  -2.494   0.922  1.00  0.00     0.036 C 
HETATM    7  C7  UNL     1       3.330  -1.019  -0.581  1.00  0.00     0.021 C 
HETATM    8  C8  UNL     1       2.575  -1.044  -1.894  1.00  0.00    -0.015 C 
HETATM    9  C9  UNL     1       2.881  -1.865  -2.909  1.00  0.00     0.031 C 
HETATM   10  C10 UNL     1       3.804  -2.853  -2.826  1.00  0.00     0.172 C 
HETATM   11  O1  UNL     1       4.063  -3.543  -3.787  1.00  0.00    -0.291 OA
HETATM   12  C11 UNL     1       1.317  -0.203  -1.951  1.00  0.00     0.142 C 
HETATM   13  C12 UNL     1       1.282   1.004  -0.990  1.00  0.00     0.029 C 
HETATM   14  C13 UNL     1       1.486   0.416   0.431  1.00  0.00     0.003 C 
HETATM   15  C14 UNL     1       2.294  -0.905   0.543  1.00  0.00     0.004 C 
HETATM   16  C15 UNL     1       2.356   2.071  -1.319  1.00  0.00     0.003 C 
HETATM   17  C16 UNL     1      -0.117   1.627  -1.318  1.00  0.00     0.005 C 
HETATM   18  C26 UNL     1      -0.218   1.371  -2.858  1.00  0.00     0.003 C 
HETATM   19  C27 UNL     1       0.881   0.380  -3.285  1.00  0.00     0.034 C 
HETATM   20  O3  UNL     1       0.281  -1.111  -1.604  1.00  0.00    -0.222 OA
HETATM   21  C28 UNL     1       5.785  -1.237  -1.025  1.00  0.00     0.001 C 
HETATM   22  O4  UNL     1       5.158  -5.391   0.372  1.00  0.00    -0.221 OA
HETATM   23  O5  UNL     1       4.436  -4.030   2.724  1.00  0.00    -0.221 OA
ENDROOT
BRANCH  17  24
HETATM   24  C17 UNL     1      -0.486   3.111  -1.025  1.00  0.00     0.030 C 
HETATM   25  C25 UNL     1      -1.847   3.468  -1.674  1.00  0.00     0.003 C 
BRANCH  24  26
HETATM   26  C18 UNL     1      -0.415   3.839   0.323  1.00  0.00     0.142 A 
HETATM   27  C19 UNL     1      -0.934   3.453   1.566  1.00  0.00     0.142 A 
HETATM   28  O2  UNL     1       0.564   3.206   1.313  1.00  0.00    -0.354 OA
BRANCH  27  29
HETATM   29  C20 UNL     1      -1.624   2.139   1.918  1.00  0.00     0.030 C 
HETATM   30  C24 UNL     1      -3.133   2.208   1.614  1.00  0.00     0.003 C 
BRANCH  29  31
HETATM   31  C21 UNL     1      -1.404   1.695   3.394  1.00  0.00     0.002 C 
HETATM   32  C22 UNL     1       0.081   1.588   3.786  1.00  0.00     0.000 C 
HETATM   33  C23 UNL     1      -2.129   2.572   4.433  1.00  0.00     0.000 C 
ENDBRANCH  29  31
ENDBRANCH  27  29
ENDBRANCH  24  26
ENDBRANCH  17  24
TORSDOF 4
