REMARK  4 active torsions:
REMARK  status: ('A' for Active; 'I' for Inactive)
REMARK    1  A    between atoms: C2_2  and  O4_31 
REMARK    2  A    between atoms: O4_31  and  C28_32 
REMARK    3  A    between atoms: C29_33  and  O8_40 
REMARK    4  A    between atoms: O8_40  and  C33_41 
ROOT
HETATM    1  C1  UNL     1       3.572  -0.134  -3.495  1.00  0.00     0.063 C 
HETATM    2  C2  UNL     1       2.694  -0.989  -2.577  1.00  0.00     0.124 C 
HETATM    3  C3  UNL     1       3.584  -1.672  -1.533  1.00  0.00     0.051 C 
HETATM    4  C4  UNL     1       4.955  -1.052  -1.351  1.00  0.00    -0.044 C 
HETATM    5  C5  UNL     1       5.054   0.470  -1.432  1.00  0.00     0.043 C 
HETATM    6  C6  UNL     1       4.454   0.905  -2.788  1.00  0.00     0.158 C 
HETATM    7  O1  UNL     1       3.734   2.109  -2.657  1.00  0.00    -0.223 OA
HETATM    8  C7  UNL     1       6.546   0.921  -1.311  1.00  0.00     0.006 C 
HETATM    9  C8  UNL     1       7.194   0.147  -0.140  1.00  0.00     0.005 C 
HETATM   10  C9  UNL     1       7.330  -1.325  -0.555  1.00  0.00     0.025 C 
HETATM   11  C10 UNL     1       5.983  -1.837  -0.982  1.00  0.00    -0.035 C 
HETATM   12  C11 UNL     1       8.514   0.769   0.300  1.00  0.00     0.003 C 
HETATM   13  C12 UNL     1       8.355   2.263   0.665  1.00  0.00     0.003 C 
HETATM   14  C13 UNL     1       8.113   2.945  -0.699  1.00  0.00     0.000 C 
HETATM   15  C14 UNL     1       6.797   2.453  -1.347  1.00  0.00     0.000 C 
HETATM   16  C15 UNL     1       9.715   2.558   1.360  1.00  0.00     0.032 C 
HETATM   17  C16 UNL     1      10.279   1.207   1.812  1.00  0.00     0.118 C 
HETATM   18  C17 UNL     1       9.207   0.158   1.519  1.00  0.00     0.030 C 
HETATM   19  O2  UNL     1      10.611   1.228   3.165  1.00  0.00    -0.337 OA
HETATM   20  C18 UNL     1      10.145   2.401   3.778  1.00  0.00     0.187 C 
HETATM   21  C19 UNL     1       9.797   3.391   2.652  1.00  0.00     0.054 C 
HETATM   22  C20 UNL     1      10.814   4.537   2.473  1.00  0.00     0.005 C 
HETATM   23  O3  UNL     1      11.212   2.927   4.536  1.00  0.00    -0.335 OA
HETATM   24  C21 UNL     1      11.630   2.123   5.613  1.00  0.00     0.145 C 
HETATM   25  C22 UNL     1      10.509   1.922   6.630  1.00  0.00     0.030 C 
HETATM   26  C23 UNL     1       9.343   1.240   5.910  1.00  0.00     0.007 C 
HETATM   27  C24 UNL     1       8.962   2.087   4.693  1.00  0.00     0.056 C 
HETATM   28  C25 UNL     1      10.969   1.100   7.843  1.00  0.00     0.003 C 
HETATM   29  C26 UNL     1       7.151   2.598   1.569  1.00  0.00     0.000 C 
HETATM   30  C27 UNL     1       4.231   1.013  -0.241  1.00  0.00     0.007 C 
ENDROOT
BRANCH   2  31
HETATM   31  O4  UNL     1       1.638  -0.213  -2.067  1.00  0.00    -0.331 OA
BRANCH  31  32
HETATM   32  C28 UNL     1       0.763  -0.865  -1.160  1.00  0.00     0.267 C 
HETATM   33  C29 UNL     1      -0.706  -0.748  -1.526  1.00  0.00     0.207 C 
HETATM   34  C30 UNL     1      -1.114   0.711  -1.572  1.00  0.00     0.217 C 
HETATM   35  C31 UNL     1      -0.851   1.330  -0.210  1.00  0.00     0.214 C 
HETATM   36  O7  UNL     1      -2.473   0.812  -1.922  1.00  0.00    -0.218 OA
HETATM   37  C32 UNL     1       0.601   1.097   0.171  1.00  0.00     0.181 C 
HETATM   38  O6  UNL     1      -1.676   0.754   0.776  1.00  0.00    -0.218 OA
HETATM   39  O5  UNL     1       0.972  -0.265   0.106  1.00  0.00    -0.326 OA
BRANCH  33  40
HETATM   40  O8  UNL     1      -1.031  -1.362  -2.740  1.00  0.00    -0.324 OA
BRANCH  40  41
HETATM   41  C33 UNL     1      -1.012  -2.777  -2.684  1.00  0.00     0.270 C 
HETATM   42  C34 UNL     1      -2.264  -3.309  -3.337  1.00  0.00     0.241 C 
HETATM   43  C35 UNL     1      -2.212  -4.820  -3.417  1.00  0.00     0.220 C 
HETATM   44  O12 UNL     1      -3.368  -2.944  -2.544  1.00  0.00    -0.215 OA
HETATM   45  C36 UNL     1      -0.895  -5.264  -4.030  1.00  0.00     0.212 C 
HETATM   46  O11 UNL     1      -2.346  -5.332  -2.114  1.00  0.00    -0.218 OA
HETATM   47  C37 UNL     1       0.328  -4.539  -3.475  1.00  0.00     0.151 C 
HETATM   48  O10 UNL     1      -0.966  -5.019  -5.418  1.00  0.00    -0.218 OA
HETATM   49  O9  UNL     1       0.132  -3.153  -3.412  1.00  0.00    -0.329 OA
HETATM   50  C38 UNL     1       0.865  -5.096  -2.154  1.00  0.00     0.035 C 
ENDBRANCH  40  41
ENDBRANCH  33  40
ENDBRANCH  31  32
ENDBRANCH   2  31
TORSDOF 4
