REMARK  9 active torsions:
REMARK  status: ('A' for Active; 'I' for Inactive)
REMARK    1  A    between atoms: C2_2  and  O8_41 
REMARK    2  A    between atoms: C15_16  and  C18_19 
REMARK    3  A    between atoms: C18_19  and  C19_20 
REMARK    4  A    between atoms: C20_22  and  O3_27 
REMARK    5  A    between atoms: O3_27  and  C25_28 
REMARK    6  A    between atoms: O8_41  and  C34_42 
REMARK    7  A    between atoms: C35_43  and  O13_52 
REMARK    8  A    between atoms: C38_46  and  C39_48 
REMARK    9  A    between atoms: O13_52  and  C40_53 
ROOT
HETATM    1  C1  UNL     1      -2.929  -0.622  -1.577  1.00  0.00     0.031 C 
HETATM    2  C2  UNL     1      -2.267  -1.701  -0.640  1.00  0.00     0.122 C 
HETATM    3  C3  UNL     1      -1.458  -2.566  -1.582  1.00  0.00     0.055 C 
HETATM    4  C4  UNL     1      -0.443  -1.636  -2.258  1.00  0.00    -0.000 C 
HETATM    5  C5  UNL     1      -0.579   0.228  -1.795  1.00  0.00     0.033 C 
HETATM    6  C6  UNL     1      -1.997   0.327  -2.463  1.00  0.00     0.010 C 
HETATM    7  C7  UNL     1       1.185   1.000  -1.738  1.00  0.00    -0.042 C 
HETATM    8  C8  UNL     1       2.675  -0.415  -1.895  1.00  0.00    -0.012 C 
HETATM    9  C9  UNL     1       2.456  -1.813  -2.162  1.00  0.00     0.040 C 
HETATM   10  C10 UNL     1       1.188  -2.474  -2.357  1.00  0.00     0.188 C 
HETATM   11  O1  UNL     1       1.157  -3.664  -2.583  1.00  0.00    -0.287 OA
HETATM   12  C11 UNL     1       4.370   0.016  -1.580  1.00  0.00    -0.045 C 
HETATM   13  C12 UNL     1       4.741   1.420  -0.580  1.00  0.00     0.015 C 
HETATM   14  C13 UNL     1       3.542   2.736  -0.477  1.00  0.00     0.008 C 
HETATM   15  C14 UNL     1       1.718   2.476  -0.767  1.00  0.00     0.023 C 
HETATM   16  C15 UNL     1       6.158   1.631  -1.231  1.00  0.00     0.006 C 
HETATM   17  C16 UNL     1       6.728   0.169  -1.358  1.00  0.00     0.005 C 
HETATM   18  C17 UNL     1       5.562  -0.879  -1.225  1.00  0.00     0.022 C 
HETATM   19  C32 UNL     1       5.218   1.103   0.899  1.00  0.00     0.004 C 
HETATM   20  C33 UNL     1      -1.156   1.151  -0.596  1.00  0.00     0.008 C 
ENDROOT
BRANCH   2  21
HETATM   21  O8  UNL     1      -1.428  -1.173   0.365  1.00  0.00    -0.331 OA
BRANCH  21  22
HETATM   22  C34 UNL     1      -0.717  -2.067   1.212  1.00  0.00     0.267 C 
HETATM   23  C35 UNL     1       0.620  -1.486   1.697  1.00  0.00     0.207 C 
HETATM   24  C36 UNL     1       1.179  -2.453   2.729  1.00  0.00     0.217 C 
HETATM   25  C37 UNL     1       0.177  -2.612   3.850  1.00  0.00     0.215 C 
HETATM   26  O12 UNL     1       2.381  -1.946   3.254  1.00  0.00    -0.218 OA
HETATM   27  C38 UNL     1      -1.153  -3.097   3.290  1.00  0.00     0.184 C 
HETATM   28  O11 UNL     1       0.709  -3.530   4.774  1.00  0.00    -0.218 OA
HETATM   29  O9  UNL     1      -1.607  -2.207   2.304  1.00  0.00    -0.326 OA
BRANCH  23  30
HETATM   30  O13 UNL     1       1.649  -1.326   0.735  1.00  0.00    -0.324 OA
BRANCH  30  31
HETATM   31  C40 UNL     1       1.472  -0.225  -0.153  1.00  0.00     0.270 C 
HETATM   32  C41 UNL     1       2.671   0.733  -0.367  1.00  0.00     0.241 C 
HETATM   33  C42 UNL     1       3.002   1.547  -2.182  1.00  0.00     0.220 C 
HETATM   34  O17 UNL     1       2.635   1.332   0.968  1.00  0.00    -0.215 OA
HETATM   35  C43 UNL     1       2.432   0.750  -3.508  1.00  0.00     0.212 C 
HETATM   36  O16 UNL     1       2.672   2.898  -2.683  1.00  0.00    -0.218 OA
HETATM   37  C44 UNL     1       1.204  -0.279  -3.145  1.00  0.00     0.151 C 
HETATM   38  O15 UNL     1       3.412   0.104  -4.301  1.00  0.00    -0.218 OA
HETATM   39  O14 UNL     1       0.946  -0.762  -1.372  1.00  0.00    -0.329 OA
HETATM   40  C45 UNL     1       0.141   0.210  -4.237  1.00  0.00     0.035 C 
ENDBRANCH  30  31
ENDBRANCH  23  30
BRANCH  27  41
HETATM   41  C39 UNL     1      -2.208  -3.174   4.386  1.00  0.00     0.214 C 
HETATM   42  O10 UNL     1      -3.403  -3.722   3.866  1.00  0.00    -0.218 OA
ENDBRANCH  27  41
ENDBRANCH  21  22
ENDBRANCH   2  21
BRANCH  16  43
HETATM   43  C18 UNL     1       7.002   2.836  -0.713  1.00  0.00     0.028 C 
HETATM   44  C31 UNL     1       7.287   3.792  -1.902  1.00  0.00     0.003 C 
BRANCH  43  45
HETATM   45  C19 UNL     1       8.319   2.630   0.080  1.00  0.00     0.118 C 
HETATM   46  O2  UNL     1       8.233   1.526   0.936  1.00  0.00    -0.333 OA
HETATM   47  C20 UNL     1       9.400   1.234   1.679  1.00  0.00     0.237 C 
HETATM   48  C21 UNL     1       9.757   2.390   2.596  1.00  0.00     0.057 C 
HETATM   49  C22 UNL     1       9.932   3.664   1.765  1.00  0.00     0.007 C 
HETATM   50  C24 UNL     1      10.976   2.110   3.486  1.00  0.00     0.005 C 
HETATM   51  C23 UNL     1       8.675   3.873   0.912  1.00  0.00     0.030 C 
BRANCH  47  52
HETATM   52  O3  UNL     1      10.394   0.929   0.720  1.00  0.00    -0.304 OA
BRANCH  52  53
HETATM   53  C25 UNL     1      11.110  -0.276   0.910  1.00  0.00     0.272 C 
HETATM   54  C26 UNL     1      11.206  -0.977  -0.425  1.00  0.00     0.241 C 
HETATM   55  C27 UNL     1      12.095  -2.196  -0.328  1.00  0.00     0.220 C 
HETATM   56  O7  UNL     1       9.919  -1.391  -0.809  1.00  0.00    -0.215 OA
HETATM   57  C28 UNL     1      13.424  -1.808   0.293  1.00  0.00     0.212 C 
HETATM   58  O6  UNL     1      11.437  -3.156   0.461  1.00  0.00    -0.218 OA
HETATM   59  C29 UNL     1      13.294  -0.919   1.527  1.00  0.00     0.151 C 
HETATM   60  O5  UNL     1      14.165  -1.113  -0.686  1.00  0.00    -0.218 OA
HETATM   61  O4  UNL     1      12.389   0.134   1.336  1.00  0.00    -0.329 OA
HETATM   62  C30 UNL     1      13.015  -1.671   2.830  1.00  0.00     0.035 C 
ENDBRANCH  52  53
ENDBRANCH  47  52
ENDBRANCH  43  45
ENDBRANCH  16  43
TORSDOF 9
