REMARK  7 active torsions:
REMARK  status: ('A' for Active; 'I' for Inactive)
REMARK    1  A    between atoms: C1_1  and  O15_41 
REMARK    2  A    between atoms: C2_2  and  O5_19 
REMARK    3  A    between atoms: C11_12  and  O3_16 
REMARK    4  A    between atoms: O5_19  and  C15_20 
REMARK    5  A    between atoms: C16_21  and  O10_30 
REMARK    6  A    between atoms: C19_25  and  C20_27 
REMARK    7  A    between atoms: O10_30  and  C21_31 
ROOT
HETATM    1  C15 UNL     1       0.948  -0.404  -1.237  1.00  0.00     0.271 C 
HETATM    2  C16 UNL     1       0.162  -1.688  -1.016  1.00  0.00     0.207 C 
HETATM    3  C17 UNL     1      -0.921  -1.760  -2.089  1.00  0.00     0.217 C 
HETATM    4  C18 UNL     1      -1.749  -0.487  -2.153  1.00  0.00     0.215 C 
HETATM    5  O6  UNL     1      -2.528  -0.517  -3.328  1.00  0.00    -0.218 OA
HETATM    6  C19 UNL     1      -0.853   0.744  -2.182  1.00  0.00     0.184 C 
HETATM    7  O7  UNL     1       0.052   0.681  -1.118  1.00  0.00    -0.326 OA
HETATM    8  O9  UNL     1      -1.750  -2.866  -1.818  1.00  0.00    -0.218 OA
ENDROOT
BRANCH   1   9
HETATM    9  O5  UNL     1       1.868  -0.176  -0.198  1.00  0.00    -0.302 OA
BRANCH   9  10
HETATM   10  C2  UNL     1       2.831   0.812  -0.237  1.00  0.00     0.121 A 
HETATM   11  C1  UNL     1       3.042   1.741  -1.206  1.00  0.00     0.117 A 
HETATM   12  C6  UNL     1       4.039   2.628  -1.000  1.00  0.00     0.031 A 
HETATM   13  C5  UNL     1       4.846   2.629   0.075  1.00  0.00     0.064 A 
HETATM   14  C4  UNL     1       4.673   1.688   1.014  1.00  0.00     0.105 A 
HETATM   15  C7  UNL     1       5.831   3.560   0.220  1.00  0.00     0.201 A 
HETATM   16  C3  UNL     1       3.666   0.822   0.822  1.00  0.00     0.051 A 
HETATM   17  O1  UNL     1       5.455   1.598   2.123  1.00  0.00    -0.307 OA
HETATM   18  C9  UNL     1       6.436   2.540   2.238  1.00  0.00     0.107 A 
HETATM   19  C8  UNL     1       6.633   3.511   1.323  1.00  0.00     0.087 A 
HETATM   20  C10 UNL     1       7.246   2.488   3.312  1.00  0.00     0.049 A 
HETATM   21  C13 UNL     1       7.619   4.418   1.505  1.00  0.00     0.138 A 
HETATM   22  C12 UNL     1       8.390   4.313   2.600  1.00  0.00     0.052 A 
HETATM   23  O2  UNL     1       7.883   5.435   0.636  1.00  0.00    -0.190 OA
HETATM   24  C11 UNL     1       8.240   3.365   3.540  1.00  0.00     0.098 A 
HETATM   25  O4  UNL     1       5.972   4.408  -0.633  1.00  0.00    -0.286 OA
BRANCH  11  26
HETATM   26  O15 UNL     1       2.248   1.785  -2.328  1.00  0.00    -0.326 OA
HETATM   27  C27 UNL     1       2.387   2.820  -3.273  1.00  0.00     0.181 C 
ENDBRANCH  11  26
BRANCH  24  28
HETATM   28  O3  UNL     1       9.105   3.341   4.607  1.00  0.00    -0.328 OA
HETATM   29  C14 UNL     1       9.087   2.226   5.468  1.00  0.00     0.181 C 
ENDBRANCH  24  28
ENDBRANCH   9  10
ENDBRANCH   1   9
BRANCH   2  30
HETATM   30  O10 UNL     1       0.917  -2.861  -1.160  1.00  0.00    -0.324 OA
BRANCH  30  31
HETATM   31  C21 UNL     1       1.854  -3.117  -0.137  1.00  0.00     0.270 C 
HETATM   32  C22 UNL     1       1.768  -4.576   0.248  1.00  0.00     0.241 C 
HETATM   33  C23 UNL     1       2.887  -4.946   1.201  1.00  0.00     0.220 C 
HETATM   34  O14 UNL     1       0.540  -4.794   0.900  1.00  0.00    -0.215 OA
HETATM   35  C24 UNL     1       4.221  -4.486   0.637  1.00  0.00     0.212 C 
HETATM   36  O13 UNL     1       2.637  -4.305   2.429  1.00  0.00    -0.218 OA
HETATM   37  C25 UNL     1       4.164  -3.034   0.172  1.00  0.00     0.151 C 
HETATM   38  O12 UNL     1       4.558  -5.326  -0.442  1.00  0.00    -0.218 OA
HETATM   39  O11 UNL     1       3.106  -2.840  -0.725  1.00  0.00    -0.329 OA
HETATM   40  C26 UNL     1       5.458  -2.582  -0.505  1.00  0.00     0.035 C 
ENDBRANCH  30  31
ENDBRANCH   2  30
BRANCH   6  41
HETATM   41  C20 UNL     1      -1.632   2.044  -2.041  1.00  0.00     0.214 C 
HETATM   42  O8  UNL     1      -2.604   2.135  -3.061  1.00  0.00    -0.218 OA
ENDBRANCH   6  41
TORSDOF 7
