REMARK  7 active torsions:
REMARK  status: ('A' for Active; 'I' for Inactive)
REMARK    1  A    between atoms: C1_1  and  O13_35 
REMARK    2  A    between atoms: C2_2  and  O7_23 
REMARK    3  A    between atoms: C11_12  and  O4_19 
REMARK    4  A    between atoms: C12_13  and  O3_17 
REMARK    5  A    between atoms: C13_14  and  O2_15 
REMARK    6  A    between atoms: O7_23  and  C17_24 
REMARK    7  A    between atoms: C21_29  and  C22_31 
ROOT
HETATM    1  C1  UNL     1       3.071  -0.191  -1.457  1.00  0.00     0.119 A 
HETATM    2  C2  UNL     1       2.896  -1.179  -0.541  1.00  0.00     0.146 A 
HETATM    3  C3  UNL     1       3.715  -1.217   0.536  1.00  0.00     0.178 A 
HETATM    4  C4  UNL     1       4.684  -0.306   0.747  1.00  0.00     0.130 A 
HETATM    5  C5  UNL     1       4.841   0.688  -0.136  1.00  0.00     0.066 A 
HETATM    6  C6  UNL     1       4.032   0.721  -1.209  1.00  0.00     0.032 A 
HETATM    7  C7  UNL     1       5.801   1.639   0.056  1.00  0.00     0.201 A 
HETATM    8  C8  UNL     1       6.616   1.573   1.155  1.00  0.00     0.086 A 
HETATM    9  C9  UNL     1       6.426   0.549   2.005  1.00  0.00     0.107 A 
HETATM   10  O1  UNL     1       5.470  -0.411   1.851  1.00  0.00    -0.305 OA
HETATM   11  C10 UNL     1       7.236   0.467   3.067  1.00  0.00     0.051 A 
HETATM   12  C11 UNL     1       8.214   1.345   3.345  1.00  0.00     0.120 A 
HETATM   13  C12 UNL     1       8.381   2.388   2.491  1.00  0.00     0.139 A 
HETATM   14  C13 UNL     1       7.587   2.499   1.386  1.00  0.00     0.123 A 
HETATM   15  O5  UNL     1       5.890   2.508  -0.784  1.00  0.00    -0.286 OA
HETATM   16  O6  UNL     1       3.554  -2.209   1.461  1.00  0.00    -0.186 OA
ENDROOT
BRANCH   2  17
HETATM   17  O7  UNL     1       1.955  -2.190  -0.578  1.00  0.00    -0.299 OA
BRANCH  17  18
HETATM   18  C17 UNL     1       0.967  -2.299  -1.570  1.00  0.00     0.274 C 
HETATM   19  C18 UNL     1       0.243  -3.612  -1.394  1.00  0.00     0.241 C 
HETATM   20  C19 UNL     1      -0.853  -3.713  -2.437  1.00  0.00     0.220 C 
HETATM   21  O12 UNL     1       1.146  -4.676  -1.563  1.00  0.00    -0.215 OA
HETATM   22  C20 UNL     1      -1.745  -2.481  -2.387  1.00  0.00     0.215 C 
HETATM   23  O11 UNL     1      -1.593  -4.882  -2.179  1.00  0.00    -0.218 OA
HETATM   24  O8  UNL     1      -2.558  -2.466  -3.538  1.00  0.00    -0.218 OA
HETATM   25  C21 UNL     1      -0.926  -1.192  -2.343  1.00  0.00     0.184 C 
HETATM   26  O9  UNL     1       0.042  -1.264  -1.331  1.00  0.00    -0.326 OA
BRANCH  25  27
HETATM   27  C22 UNL     1      -1.775   0.041  -2.069  1.00  0.00     0.214 C 
HETATM   28  O10 UNL     1      -2.801   0.146  -3.033  1.00  0.00    -0.218 OA
ENDBRANCH  25  27
ENDBRANCH  17  18
ENDBRANCH   2  17
BRANCH   1  29
HETATM   29  O13 UNL     1       2.263  -0.104  -2.566  1.00  0.00    -0.326 OA
HETATM   30  C23 UNL     1       2.190   1.089  -3.310  1.00  0.00     0.181 C 
ENDBRANCH   1  29
BRANCH  14  31
HETATM   31  O2  UNL     1       7.673   3.536   0.473  1.00  0.00    -0.326 OA
HETATM   32  C14 UNL     1       8.376   4.735   0.692  1.00  0.00     0.181 C 
ENDBRANCH  14  31
BRANCH  12  33
HETATM   33  O4  UNL     1       9.019   1.194   4.449  1.00  0.00    -0.326 OA
HETATM   34  C16 UNL     1       8.905   0.059   5.274  1.00  0.00     0.181 C 
ENDBRANCH  12  33
BRANCH  13  35
HETATM   35  O3  UNL     1       9.353   3.352   2.659  1.00  0.00    -0.324 OA
HETATM   36  C15 UNL     1      10.344   3.315   3.655  1.00  0.00     0.182 C 
ENDBRANCH  13  35
TORSDOF 7
