REMARK  1 active torsions:
REMARK  status: ('A' for Active; 'I' for Inactive)
REMARK    1  A    between atoms: C12_14  and  C14_16 
ROOT
HETATM    1  C1  UNL     1      -2.136  -0.820   1.017  1.00  0.00    -0.030 C 
HETATM    2  C2  UNL     1      -2.249  -1.993   0.086  1.00  0.00     0.036 C 
HETATM    3  C3  UNL     1      -0.955  -2.808   0.204  1.00  0.00     0.093 C 
HETATM    4  C4  UNL     1       0.342  -1.996  -0.018  1.00  0.00     0.043 C 
HETATM    5  C5  UNL     1       0.144  -0.460   0.125  1.00  0.00     0.029 C 
HETATM    6  C6  UNL     1      -0.996  -0.119   1.055  1.00  0.00    -0.031 C 
HETATM    7  C7  UNL     1       1.436   0.307   0.495  1.00  0.00     0.061 C 
HETATM    8  C8  UNL     1       1.993  -0.243   1.817  1.00  0.00     0.033 C 
HETATM    9  C9  UNL     1       2.583  -1.517   1.224  1.00  0.00     0.118 C 
HETATM   10  C10 UNL     1       1.449  -2.511   0.941  1.00  0.00     0.033 C 
HETATM   11  O1  UNL     1       3.227  -1.142   0.039  1.00  0.00    -0.334 OA
HETATM   12  C11 UNL     1       2.550  -0.020  -0.479  1.00  0.00     0.236 C 
HETATM   13  O2  UNL     1       3.442   1.068  -0.492  1.00  0.00    -0.329 OA
HETATM   14  C12 UNL     1       2.734   2.237  -0.139  1.00  0.00     0.142 C 
HETATM   15  C13 UNL     1       1.348   1.827   0.360  1.00  0.00     0.040 C 
HETATM   16  C18 UNL     1       3.041   0.576   2.584  1.00  0.00     0.003 C 
HETATM   17  C19 UNL     1       0.669  -2.422  -1.462  1.00  0.00     0.153 C 
HETATM   18  O4  UNL     1       0.050  -3.654  -1.720  1.00  0.00    -0.302 OA
HETATM   19  C20 UNL     1      -0.908  -3.930  -0.808  1.00  0.00     0.272 C 
HETATM   20  O5  UNL     1      -1.621  -4.910  -0.821  1.00  0.00    -0.264 OA
ENDROOT
BRANCH  14  21
HETATM   21  C14 UNL     1       2.674   3.197  -1.295  1.00  0.00     0.031 A 
HETATM   22  C15 UNL     1       3.120   4.459  -1.346  1.00  0.00     0.121 A 
HETATM   23  O3  UNL     1       2.917   4.972  -2.446  1.00  0.00    -0.303 OA
HETATM   24  C16 UNL     1       2.360   4.138  -3.159  1.00  0.00     0.122 A 
HETATM   25  C17 UNL     1       2.164   2.981  -2.515  1.00  0.00     0.027 A 
ENDBRANCH  14  21
TORSDOF 1
