REMARK  1 active torsions:
REMARK  status: ('A' for Active; 'I' for Inactive)
REMARK    1  A    between atoms: C12_15  and  C14_17 
ROOT
HETATM    1  C1  UNL     1      -2.776  -0.499  -1.253  1.00  0.00     0.143 A 
HETATM    2  C2  UNL     1      -2.443  -1.746  -2.064  1.00  0.00     0.042 C 
HETATM    3  C3  UNL     1      -1.102  -1.555  -2.755  1.00  0.00     0.091 C 
HETATM    4  C4  UNL     1       0.068  -1.240  -1.813  1.00  0.00     0.042 C 
HETATM    5  C5  UNL     1      -0.262   0.102  -1.113  1.00  0.00     0.037 C 
HETATM    6  C6  UNL     1      -1.748   0.327  -0.763  1.00  0.00     0.142 A 
HETATM    7  O1  UNL     1      -2.291  -0.753   0.182  1.00  0.00    -0.354 OA
HETATM    8  C7  UNL     1       0.696   0.376   0.082  1.00  0.00     0.059 C 
HETATM    9  C8  UNL     1       0.598  -0.721   1.163  1.00  0.00     0.032 C 
HETATM   10  C9  UNL     1       1.330  -1.795   0.371  1.00  0.00     0.118 C 
HETATM   11  C10 UNL     1       0.432  -2.320  -0.765  1.00  0.00     0.033 C 
HETATM   12  O2  UNL     1       2.473  -1.151  -0.123  1.00  0.00    -0.334 OA
HETATM   13  C11 UNL     1       2.139   0.204  -0.350  1.00  0.00     0.235 C 
HETATM   14  O3  UNL     1       2.920   1.007   0.500  1.00  0.00    -0.329 OA
HETATM   15  C12 UNL     1       2.160   2.143   0.851  1.00  0.00     0.142 C 
HETATM   16  C13 UNL     1       0.684   1.811   0.610  1.00  0.00     0.039 C 
HETATM   17  C18 UNL     1       1.230  -0.500   2.548  1.00  0.00     0.003 C 
HETATM   18  C19 UNL     1       1.140  -1.285  -2.926  1.00  0.00     0.152 C 
HETATM   19  O5  UNL     1       0.778  -2.341  -3.790  1.00  0.00    -0.302 OA
HETATM   20  C20 UNL     1      -0.540  -2.632  -3.646  1.00  0.00     0.272 C 
HETATM   21  O6  UNL     1      -1.139  -3.537  -4.181  1.00  0.00    -0.264 OA
ENDROOT
BRANCH  15  22
HETATM   22  C14 UNL     1       2.475   2.597   2.249  1.00  0.00     0.031 A 
HETATM   23  C15 UNL     1       1.730   3.353   3.068  1.00  0.00     0.121 A 
HETATM   24  O4  UNL     1       2.278   3.531   4.155  1.00  0.00    -0.303 OA
HETATM   25  C16 UNL     1       3.360   2.947   4.137  1.00  0.00     0.122 A 
HETATM   26  C17 UNL     1       3.573   2.329   2.970  1.00  0.00     0.027 A 
ENDBRANCH  15  22
TORSDOF 1
