REMARK  5 active torsions:
REMARK  status: ('A' for Active; 'I' for Inactive)
REMARK    1  A    between atoms: C7_7  and  C12_12 
REMARK    2  A    between atoms: C12_12  and  C13_13 
REMARK    3  A    between atoms: C13_13  and  C14_14 
REMARK    4  A    between atoms: C14_14  and  C15_15 
REMARK    5  A    between atoms: C16_17  and  C17_18 
ROOT
HETATM    1  C1  UNL     1      -1.813  -0.875  -1.384  1.00  0.00     0.025 C 
HETATM    2  C2  UNL     1      -2.103  -2.056  -0.498  1.00  0.00    -0.035 C 
HETATM    3  C3  UNL     1      -1.188  -2.676   0.268  1.00  0.00    -0.049 C 
HETATM    4  C4  UNL     1       0.296  -2.292   0.185  1.00  0.00     0.015 C 
HETATM    5  C5  UNL     1       0.414  -0.741  -0.088  1.00  0.00     0.004 C 
HETATM    6  C6  UNL     1      -0.328  -0.488  -1.429  1.00  0.00     0.005 C 
HETATM    7  C7  UNL     1       1.898  -0.149  -0.107  1.00  0.00     0.001 C 
HETATM    8  C8  UNL     1       2.661  -0.649   1.169  1.00  0.00     0.000 C 
HETATM    9  C9  UNL     1       2.526  -2.160   1.420  1.00  0.00     0.000 C 
HETATM   10  C10 UNL     1       1.064  -2.619   1.482  1.00  0.00     0.004 C 
HETATM   11  C11 UNL     1       4.151  -0.264   1.262  1.00  0.00     0.000 C 
HETATM   12  C18 UNL     1       2.689  -0.572  -1.368  1.00  0.00     0.000 C 
HETATM   13  C19 UNL     1      -0.396   0.011   1.022  1.00  0.00     0.000 C 
HETATM   14  C20 UNL     1       0.784  -3.274  -0.916  1.00  0.00     0.004 C 
HETATM   15  C21 UNL     1      -1.607  -3.833   1.149  1.00  0.00     0.026 C 
ENDROOT
BRANCH   7  16
HETATM   16  C12 UNL     1       1.855   1.427  -0.076  1.00  0.00     0.005 C 
BRANCH  16  17
HETATM   17  C13 UNL     1       2.872   2.248  -0.897  1.00  0.00     0.030 C 
BRANCH  17  18
HETATM   18  C14 UNL     1       2.777   3.776  -0.872  1.00  0.00     0.026 C 
HETATM   19  C16 UNL     1       2.005   4.422   0.027  1.00  0.00     0.069 C 
BRANCH  18  20
HETATM   20  C15 UNL     1       3.535   4.414  -1.808  1.00  0.00     0.230 C 
HETATM   21  O1  UNL     1       4.232   3.828  -2.602  1.00  0.00    -0.283 OA
ENDBRANCH  18  20
BRANCH  19  22
HETATM   22  C17 UNL     1       1.790   5.752   0.219  1.00  0.00     0.211 C 
HETATM   23  O2  UNL     1       0.972   6.193   1.203  1.00  0.00    -0.644 OA
HETATM   24  O3  UNL     1       2.297   6.619  -0.453  1.00  0.00    -0.644 OA
ENDBRANCH  19  22
ENDBRANCH  17  18
ENDBRANCH  16  17
ENDBRANCH   7  16
TORSDOF 5
