REMARK  11 active torsions:
REMARK  status: ('A' for Active; 'I' for Inactive)
REMARK    1  A    between atoms: C3_3  and  C33_44 
REMARK    2  A    between atoms: C6_6  and  O1_7 
REMARK    3  A    between atoms: C11_12  and  O7_33 
REMARK    4  A    between atoms: C13_14  and  O5_29 
REMARK    5  A    between atoms: C15_16  and  O2_17 
REMARK    6  A    between atoms: N1_20  and  C19_22 
REMARK    7  A    between atoms: C22_26  and  O4_27 
REMARK    8  A    between atoms: O5_29  and  C24_30 
REMARK    9  A    between atoms: O7_33  and  C26_34 
REMARK   10  A    between atoms: C26_34  and  C27_35 
REMARK   11  A    between atoms: C33_44  and  O11_45 
ROOT
HETATM    1  C1  UNL     1      -1.805   1.291   0.866  1.00  0.00     0.030 C 
HETATM    2  C2  UNL     1      -2.139  -0.062   1.502  1.00  0.00     0.007 C 
HETATM    3  C3  UNL     1      -1.113  -1.206   1.229  1.00  0.00     0.061 C 
HETATM    4  C4  UNL     1       0.296  -0.539   1.170  1.00  0.00     0.038 C 
HETATM    5  C5  UNL     1       0.344   0.361  -0.103  1.00  0.00     0.083 C 
HETATM    6  C6  UNL     1      -0.932   1.202  -0.383  1.00  0.00     0.119 C 
HETATM    7  C8  UNL     1       1.536   1.367  -0.130  1.00  0.00     0.138 C 
HETATM    8  C9  UNL     1       1.733   2.148  -1.456  1.00  0.00     0.066 C 
HETATM    9  C10 UNL     1       3.248   2.195  -1.734  1.00  0.00     0.182 C 
HETATM   10  C11 UNL     1       3.815   2.036  -0.333  1.00  0.00     0.160 C 
HETATM   11  C12 UNL     1       2.959   0.843   0.106  1.00  0.00     0.087 C 
HETATM   12  C13 UNL     1       3.213  -0.473  -0.665  1.00  0.00     0.140 C 
HETATM   13  C14 UNL     1       1.938  -1.347  -0.475  1.00  0.00     0.087 C 
HETATM   14  C15 UNL     1       1.531  -1.472   1.011  1.00  0.00     0.120 C 
HETATM   15  C17 UNL     1       0.611  -0.806  -1.072  1.00  0.00     0.229 C 
HETATM   16  N1  UNL     1      -0.307  -1.956  -1.039  1.00  0.00     0.135 N 
HETATM   17  C18 UNL     1      -1.449  -1.832  -0.150  1.00  0.00     0.253 C 
HETATM   18  C21 UNL     1       3.456  -0.286  -2.177  1.00  0.00     0.207 C 
HETATM   19  O3  UNL     1       4.349  -1.230  -2.717  1.00  0.00    -0.218 OA
HETATM   20  C22 UNL     1       3.719   1.121  -2.711  1.00  0.00     0.178 C 
HETATM   21  O9  UNL     1       3.621   3.441  -2.258  1.00  0.00    -0.221 OA
HETATM   22  O10 UNL     1       1.299   2.305   0.898  1.00  0.00    -0.226 OA
ENDROOT
BRANCH  10  23
HETATM   23  O7  UNL     1       5.180   1.809  -0.329  1.00  0.00    -0.298 OA
BRANCH  23  24
HETATM   24  C26 UNL     1       6.085   2.346   0.557  1.00  0.00     0.296 C 
HETATM   25  O8  UNL     1       7.238   2.291   0.171  1.00  0.00    -0.259 OA
BRANCH  24  26
HETATM   26  C27 UNL     1       5.912   2.904   1.799  1.00  0.00     0.063 A 
HETATM   27  C28 UNL     1       4.746   2.934   2.473  1.00  0.00     0.005 A 
HETATM   28  C29 UNL     1       4.632   3.498   3.687  1.00  0.00     0.000 A 
HETATM   29  C30 UNL     1       5.698   4.053   4.278  1.00  0.00     0.000 A 
HETATM   30  C31 UNL     1       6.876   4.021   3.642  1.00  0.00     0.000 A 
HETATM   31  C32 UNL     1       6.975   3.451   2.431  1.00  0.00     0.005 A 
ENDBRANCH  24  26
ENDBRANCH  23  24
ENDBRANCH  10  23
BRANCH  20  32
HETATM   32  O4  UNL     1       5.083   1.315  -2.973  1.00  0.00    -0.349 OA
HETATM   33  C23 UNL     1       5.430   1.191  -4.336  1.00  0.00     0.174 C 
ENDBRANCH  20  32
BRANCH  12  34
HETATM   34  O5  UNL     1       4.206  -1.186   0.029  1.00  0.00    -0.304 OA
BRANCH  34  35
HETATM   35  C24 UNL     1       5.529  -1.248  -0.267  1.00  0.00     0.272 C 
HETATM   36  C25 UNL     1       6.209  -2.228   0.670  1.00  0.00     0.106 C 
HETATM   37  O6  UNL     1       6.114  -0.637  -1.129  1.00  0.00    -0.264 OA
ENDBRANCH  34  35
ENDBRANCH  12  34
BRANCH   6  38
HETATM   38  O1  UNL     1      -1.627   0.751  -1.511  1.00  0.00    -0.354 OA
HETATM   39  C7  UNL     1      -2.375   1.746  -2.179  1.00  0.00     0.174 C 
ENDBRANCH   6  38
BRANCH  14  40
HETATM   40  O2  UNL     1       1.257  -2.791   1.373  1.00  0.00    -0.354 OA
HETATM   41  C16 UNL     1       2.399  -3.607   1.522  1.00  0.00     0.174 C 
ENDBRANCH  14  40
BRANCH   3  42
HETATM   42  C33 UNL     1      -1.329  -2.189   2.418  1.00  0.00     0.144 C 
BRANCH  42  43
HETATM   43  O11 UNL     1      -1.154  -3.550   2.094  1.00  0.00    -0.351 OA
HETATM   44  C34 UNL     1      -1.304  -4.396   3.215  1.00  0.00     0.174 C 
ENDBRANCH  42  43
ENDBRANCH   3  42
BRANCH  16  45
HETATM   45  C19 UNL     1      -0.663  -2.392  -2.386  1.00  0.00     0.250 C 
HETATM   46  C20 UNL     1      -1.437  -3.719  -2.434  1.00  0.00     0.037 C 
ENDBRANCH  16  45
TORSDOF 11
