REMARK  2 active torsions:
REMARK  status: ('A' for Active; 'I' for Inactive)
REMARK    1  A    between atoms: C1_1  and  O7_25 
REMARK    2  A    between atoms: C5_5  and  C7_7 
ROOT
HETATM    1  C7  UNL     1      -0.456   0.847  -0.325  1.00  0.00     0.001 C 
HETATM    2  C8  UNL     1       0.600   0.305  -0.973  1.00  0.00     0.044 C 
HETATM    3  C9  UNL     1       0.308  -0.791  -2.008  1.00  0.00     0.168 C 
HETATM    4  O1  UNL     1      -0.665  -1.720  -1.566  1.00  0.00    -0.350 OA
HETATM    5  C10 UNL     1      -0.178  -2.826  -0.842  1.00  0.00     0.143 C 
HETATM    6  C11 UNL     1       1.202  -2.601  -0.239  1.00  0.00     0.044 C 
HETATM    7  C12 UNL     1       2.215  -2.283  -1.346  1.00  0.00     0.111 C 
HETATM    8  C13 UNL     1       1.573  -1.489  -2.478  1.00  0.00     0.158 C 
HETATM    9  O2  UNL     1       2.491  -0.504  -2.820  1.00  0.00    -0.348 OA
HETATM   10  C14 UNL     1       2.978  -0.074  -1.580  1.00  0.00     0.177 C 
HETATM   11  C15 UNL     1       1.897   0.696  -0.812  1.00  0.00     0.198 C 
HETATM   12  O3  UNL     1       2.283   1.651  -0.178  1.00  0.00    -0.289 OA
HETATM   13  C16 UNL     1       3.361  -1.374  -0.878  1.00  0.00     0.050 C 
HETATM   14  C17 UNL     1       1.431  -2.470  -3.623  1.00  0.00     0.182 C 
HETATM   15  O4  UNL     1       2.235  -3.579  -3.314  1.00  0.00    -0.299 OA
HETATM   16  C18 UNL     1       2.706  -3.538  -2.042  1.00  0.00     0.274 C 
HETATM   17  O5  UNL     1       3.408  -4.385  -1.534  1.00  0.00    -0.264 OA
ENDROOT
BRANCH   1  18
HETATM   18  C5  UNL     1      -0.614   1.661   0.742  1.00  0.00     0.002 A 
HETATM   19  C4  UNL     1      -1.818   2.233   0.942  1.00  0.00     0.002 A 
HETATM   20  C3  UNL     1      -2.040   3.034   1.992  1.00  0.00     0.029 A 
HETATM   21  C2  UNL     1      -1.086   3.276   2.905  1.00  0.00     0.153 A 
HETATM   22  C1  UNL     1       0.112   2.669   2.782  1.00  0.00     0.119 A 
HETATM   23  O6  UNL     1      -1.353   4.094   3.960  1.00  0.00    -0.188 OA
HETATM   24  C6  UNL     1       0.301   1.879   1.705  1.00  0.00     0.026 A 
BRANCH  22  25
HETATM   25  O7  UNL     1       1.062   2.911   3.748  1.00  0.00    -0.326 OA
HETATM   26  C19 UNL     1       2.407   2.583   3.480  1.00  0.00     0.181 C 
ENDBRANCH  22  25
ENDBRANCH   1  18
TORSDOF 2
