REMARK  4 active torsions:
REMARK  status: ('A' for Active; 'I' for Inactive)
REMARK    1  A    between atoms: C8_10  and  C10_12 
REMARK    2  A    between atoms: C14_16  and  O3_18 
REMARK    3  A    between atoms: O3_18  and  C16_19 
REMARK    4  A    between atoms: C20_23  and  C21_25 
ROOT
HETATM    1  C10 UNL     1       4.654  -1.829   0.450  1.00  0.00     0.059 A 
HETATM    2  C11 UNL     1       5.989  -2.100   0.259  1.00  0.00     0.010 A 
HETATM    3  C12 UNL     1       6.936  -1.082   0.140  1.00  0.00     0.003 A 
HETATM    4  C13 UNL     1       6.618   0.274   0.195  1.00  0.00     0.032 A 
HETATM    5  C14 UNL     1       5.328   0.688   0.408  1.00  0.00     0.131 A 
HETATM    6  C15 UNL     1       5.070  -0.592   0.422  1.00  0.00    -0.075 A 
ENDROOT
BRANCH   1   7
HETATM    7  C8  UNL     1       3.507  -2.522   0.562  1.00  0.00     0.110 A 
HETATM    8  O2  UNL     1       2.327  -1.861   0.755  1.00  0.00    -0.306 OA
HETATM    9  C7  UNL     1       1.204  -2.632   0.767  1.00  0.00     0.105 A 
HETATM   10  C2  UNL     1       1.213  -3.974   0.615  1.00  0.00     0.062 A 
HETATM   11  C6  UNL     1      -0.000  -2.073   0.952  1.00  0.00     0.048 A 
HETATM   12  C1  UNL     1       2.404  -4.614   0.450  1.00  0.00     0.200 A 
HETATM   13  C3  UNL     1       0.063  -4.683   0.623  1.00  0.00     0.007 A 
HETATM   14  O1  UNL     1       2.491  -5.814   0.311  1.00  0.00    -0.286 OA
HETATM   15  C9  UNL     1       3.534  -3.860   0.427  1.00  0.00     0.067 A 
HETATM   16  C4  UNL     1      -1.132  -4.090   0.786  1.00  0.00     0.025 A 
HETATM   17  C5  UNL     1      -1.146  -2.763   0.957  1.00  0.00     0.102 A 
HETATM   18  O9  UNL     1      -2.120  -2.033   1.136  1.00  0.00    -0.305 OA
HETATM   19  C23 UNL     1      -1.707  -0.880   1.269  1.00  0.00     0.123 A 
HETATM   20  C22 UNL     1      -0.373  -0.807   1.173  1.00  0.00     0.031 A 
ENDBRANCH   1   7
BRANCH   5  21
HETATM   21  O3  UNL     1       4.714   1.903   0.426  1.00  0.00    -0.296 OA
BRANCH  21  22
HETATM   22  C16 UNL     1       3.342   1.962   0.083  1.00  0.00     0.275 C 
HETATM   23  C17 UNL     1       3.089   1.640  -1.378  1.00  0.00     0.241 C 
HETATM   24  C18 UNL     1       1.643   1.927  -1.726  1.00  0.00     0.220 C 
HETATM   25  O8  UNL     1       3.298   0.278  -1.657  1.00  0.00    -0.215 OA
HETATM   26  C19 UNL     1       1.242   3.313  -1.264  1.00  0.00     0.215 C 
HETATM   27  O7  UNL     1       0.838   0.989  -1.054  1.00  0.00    -0.218 OA
HETATM   28  C20 UNL     1       1.689   3.615   0.163  1.00  0.00     0.184 C 
HETATM   29  O6  UNL     1      -0.162   3.394  -1.346  1.00  0.00    -0.218 OA
HETATM   30  O4  UNL     1       3.052   3.327   0.312  1.00  0.00    -0.326 OA
BRANCH  28  31
HETATM   31  C21 UNL     1       1.477   5.080   0.523  1.00  0.00     0.214 C 
HETATM   32  O5  UNL     1       0.094   5.376   0.555  1.00  0.00    -0.218 OA
ENDBRANCH  28  31
ENDBRANCH  21  22
ENDBRANCH   5  21
TORSDOF 4
