REMARK  10 active torsions:
REMARK  status: ('A' for Active; 'I' for Inactive)
REMARK    1  A    between atoms: C2_2  and  C3_3 
REMARK    2  A    between atoms: C4_4  and  C28_30 
REMARK    3  A    between atoms: C13_13  and  C16_16 
REMARK    4  A    between atoms: C16_16  and  C17_17 
REMARK    5  A    between atoms: C16_16  and  C24_24 
REMARK    6  A    between atoms: C17_17  and  C18_18 
REMARK    7  A    between atoms: C18_18  and  C19_19 
REMARK    8  A    between atoms: C19_19  and  C20_20 
REMARK    9  A    between atoms: C28_30  and  C29_31 
REMARK   10  A    between atoms: C29_31  and  C30_32 
ROOT
HETATM    1  C3  UNL     1       0.257  -2.686  -1.413  1.00  0.00     0.026 C 
HETATM    2  C4  UNL     1       0.151  -1.259  -0.810  1.00  0.00     0.023 C 
HETATM    3  C5  UNL     1       1.543  -0.602  -0.768  1.00  0.00    -0.031 C 
HETATM    4  C6  UNL     1       2.674  -1.344  -0.724  1.00  0.00    -0.031 C 
HETATM    5  C7  UNL     1       2.637  -2.687  -0.726  1.00  0.00    -0.030 C 
HETATM    6  C8  UNL     1       1.378  -3.499  -0.754  1.00  0.00     0.030 C 
HETATM    7  C9  UNL     1       4.029  -0.652  -0.720  1.00  0.00     0.019 C 
HETATM    8  C10 UNL     1       3.961   0.632   0.147  1.00  0.00     0.008 C 
HETATM    9  C11 UNL     1       2.921   1.534  -0.525  1.00  0.00     0.026 C 
HETATM   10  C12 UNL     1       1.646   0.744  -0.704  1.00  0.00    -0.031 C 
HETATM   11  C13 UNL     1       5.436   1.110   0.174  1.00  0.00     0.011 C 
HETATM   12  C14 UNL     1       6.187  -0.234   0.327  1.00  0.00     0.001 C 
HETATM   13  C15 UNL     1       5.224  -1.371  -0.071  1.00  0.00     0.004 C 
HETATM   14  C25 UNL     1       3.479   0.347   1.597  1.00  0.00     0.001 C 
HETATM   15  C26 UNL     1       4.369  -0.453  -2.220  1.00  0.00     0.004 C 
HETATM   16  C27 UNL     1      -0.327  -1.295   0.662  1.00  0.00     0.005 C 
ENDROOT
BRANCH  11  17
HETATM   17  C16 UNL     1       5.823   2.213   1.188  1.00  0.00     0.088 C 
BRANCH  17  18
HETATM   18  C17 UNL     1       7.307   2.661   1.172  1.00  0.00     0.015 C 
BRANCH  18  19
HETATM   19  C18 UNL     1       8.302   1.695   1.836  1.00  0.00     0.022 C 
BRANCH  19  20
HETATM   20  C19 UNL     1       9.750   2.131   1.992  1.00  0.00    -0.044 C 
HETATM   21  C23 UNL     1      10.135   3.413   1.884  1.00  0.00    -0.009 C 
BRANCH  20  22
HETATM   22  C20 UNL     1      10.727   0.997   2.295  1.00  0.00     0.018 C 
HETATM   23  C21 UNL     1      10.401   0.320   3.639  1.00  0.00     0.004 C 
HETATM   24  C22 UNL     1      12.216   1.386   2.273  1.00  0.00     0.004 C 
ENDBRANCH  20  22
ENDBRANCH  19  20
ENDBRANCH  18  19
ENDBRANCH  17  18
BRANCH  17  25
HETATM   25  C24 UNL     1       4.991   3.465   0.916  1.00  0.00     0.185 C 
HETATM   26  O1  UNL     1       4.290   3.865   1.993  1.00  0.00    -0.647 OA
HETATM   27  O2  UNL     1       4.948   4.078  -0.124  1.00  0.00    -0.647 OA
ENDBRANCH  17  25
ENDBRANCH  11  17
BRANCH   2  28
HETATM   28  C28 UNL     1      -0.896  -0.437  -1.613  1.00  0.00     0.016 C 
BRANCH  28  29
HETATM   29  C29 UNL     1      -0.503  -0.060  -3.054  1.00  0.00     0.098 C 
BRANCH  29  30
HETATM   30  C30 UNL     1      -1.490   0.811  -3.812  1.00  0.00     0.185 C 
HETATM   31  O3  UNL     1      -1.344   1.214  -4.941  1.00  0.00    -0.647 OA
HETATM   32  O4  UNL     1      -2.593   1.114  -3.105  1.00  0.00    -0.647 OA
ENDBRANCH  29  30
ENDBRANCH  28  29
ENDBRANCH   2  28
BRANCH   1  33
HETATM   33  C2  UNL     1      -1.023  -3.506  -1.481  1.00  0.00    -0.044 C 
HETATM   34  C1  UNL     1      -1.671  -3.656  -2.839  1.00  0.00     0.026 C 
HETATM   35  C31 UNL     1      -1.550  -4.122  -0.410  1.00  0.00    -0.009 C 
ENDBRANCH   1  33
TORSDOF 10
