REMARK  5 active torsions:
REMARK  status: ('A' for Active; 'I' for Inactive)
REMARK    1  A    between atoms: C12_13  and  C13_14 
REMARK    2  A    between atoms: C13_14  and  C14_15 
REMARK    3  A    between atoms: C14_15  and  C15_16 
REMARK    4  A    between atoms: C15_16  and  C16_17 
REMARK    5  A    between atoms: C17_19  and  C18_20 
ROOT
HETATM    1  C1  UNL     1       0.904   1.847  -0.125  1.00  0.00     0.033 C 
HETATM    2  C2  UNL     1       0.671   0.399  -0.131  1.00  0.00     0.152 C 
HETATM    3  C3  UNL     1      -0.716  -0.176  -0.323  1.00  0.00     0.197 C 
HETATM    4  C4  UNL     1      -1.406  -0.054  -1.662  1.00  0.00    -0.016 C 
HETATM    5  C5  UNL     1      -1.210   0.909  -2.578  1.00  0.00    -0.032 C 
HETATM    6  C6  UNL     1      -0.278   2.092  -2.565  1.00  0.00     0.025 C 
HETATM    7  C7  UNL     1       0.170   2.683  -1.214  1.00  0.00     0.007 C 
HETATM    8  C8  UNL     1      -2.464  -1.109  -1.924  1.00  0.00     0.029 C 
HETATM    9  O1  UNL     1      -0.577  -1.548   0.007  1.00  0.00    -0.216 OA
HETATM   10  C9  UNL     1       1.113   0.361   1.425  1.00  0.00     0.179 C 
HETATM   11  C10 UNL     1       1.971   1.582   2.085  1.00  0.00     0.036 C 
HETATM   12  C11 UNL     1       2.749   2.533   1.052  1.00  0.00     0.005 C 
HETATM   13  C12 UNL     1       2.552   1.497  -0.034  1.00  0.00     0.030 C 
HETATM   14  C19 UNL     1       2.467   1.232  -1.491  1.00  0.00     0.142 C 
HETATM   15  O4  UNL     1       1.493   0.171  -1.289  1.00  0.00    -0.354 OA
HETATM   16  C20 UNL     1       4.165   2.913   1.499  1.00  0.00     0.000 C 
HETATM   17  O5  UNL     1       1.511  -0.915   1.865  1.00  0.00    -0.221 OA
ENDROOT
BRANCH  13  18
HETATM   18  C13 UNL     1       3.539   0.283   0.352  1.00  0.00     0.007 C 
BRANCH  18  19
HETATM   19  C14 UNL     1       3.631  -1.132  -0.289  1.00  0.00     0.024 C 
BRANCH  19  20
HETATM   20  C15 UNL     1       4.733  -2.068   0.197  1.00  0.00    -0.013 C 
HETATM   21  C17 UNL     1       5.611  -1.763   1.170  1.00  0.00     0.003 C 
BRANCH  20  22
HETATM   22  C16 UNL     1       4.777  -3.389  -0.545  1.00  0.00     0.204 C 
HETATM   23  O2  UNL     1       3.558  -4.110  -0.413  1.00  0.00    -0.216 OA
ENDBRANCH  20  22
BRANCH  21  24
HETATM   24  C18 UNL     1       6.702  -2.665   1.685  1.00  0.00     0.208 C 
HETATM   25  O3  UNL     1       7.761  -2.778   0.744  1.00  0.00    -0.215 OA
ENDBRANCH  21  24
ENDBRANCH  19  20
ENDBRANCH  18  19
ENDBRANCH  13  18
TORSDOF 5
