REMARK  5 active torsions:
REMARK  status: ('A' for Active; 'I' for Inactive)
REMARK    1  A    between atoms: C12_13  and  C13_14 
REMARK    2  A    between atoms: C13_14  and  C14_15 
REMARK    3  A    between atoms: C14_15  and  C15_16 
REMARK    4  A    between atoms: C15_16  and  C16_17 
REMARK    5  A    between atoms: C17_19  and  C18_20 
ROOT
HETATM    1  C1  UNL     1       1.119  -0.847  -0.311  1.00  0.00     0.052 C 
HETATM    2  C2  UNL     1       0.537  -2.326  -1.078  1.00  0.00     0.127 C 
HETATM    3  C3  UNL     1      -0.885  -3.258  -0.691  1.00  0.00     0.065 C 
HETATM    4  C4  UNL     1      -1.603  -3.213   0.845  1.00  0.00     0.148 C 
HETATM    5  C5  UNL     1      -1.016  -2.352   2.157  1.00  0.00     0.003 C 
HETATM    6  C6  UNL     1      -0.038  -1.380   2.363  1.00  0.00    -0.007 C 
HETATM    7  C7  UNL     1       1.036  -0.568   1.363  1.00  0.00    -0.024 C 
HETATM    8  C8  UNL     1      -1.763  -4.680   1.321  1.00  0.00     0.038 C 
HETATM    9  O1  UNL     1      -2.956  -2.823   0.653  1.00  0.00    -0.221 OA
HETATM   10  C9  UNL     1       1.523  -3.214  -0.484  1.00  0.00     0.177 C 
HETATM   11  C10 UNL     1       0.644  -2.598   0.631  1.00  0.00     0.035 C 
HETATM   12  C11 UNL     1      -0.631  -1.149   0.128  1.00  0.00     0.005 C 
HETATM   13  C12 UNL     1      -0.041  -0.242  -1.009  1.00  0.00     0.034 C 
HETATM   14  C19 UNL     1      -0.074  -0.849  -2.443  1.00  0.00     0.142 C 
HETATM   15  O4  UNL     1       0.586  -2.086  -2.420  1.00  0.00    -0.356 OA
HETATM   16  C20 UNL     1      -1.622  -0.202   0.968  1.00  0.00     0.000 C 
HETATM   17  O5  UNL     1       2.854  -2.769  -0.545  1.00  0.00    -0.221 OA
ENDROOT
BRANCH  13  18
HETATM   18  C13 UNL     1      -0.213   1.289  -1.141  1.00  0.00     0.007 C 
BRANCH  18  19
HETATM   19  C14 UNL     1       0.317   2.288  -0.103  1.00  0.00     0.024 C 
BRANCH  19  20
HETATM   20  C15 UNL     1       0.128   3.770  -0.387  1.00  0.00    -0.013 C 
HETATM   21  C17 UNL     1      -0.533   4.252  -1.454  1.00  0.00     0.003 C 
BRANCH  20  22
HETATM   22  C16 UNL     1       0.722   4.669   0.676  1.00  0.00     0.204 C 
HETATM   23  O2  UNL     1       0.009   4.548   1.900  1.00  0.00    -0.216 OA
ENDBRANCH  20  22
BRANCH  21  24
HETATM   24  C18 UNL     1      -0.807   5.707  -1.732  1.00  0.00     0.208 C 
HETATM   25  O3  UNL     1       0.361   6.370  -2.199  1.00  0.00    -0.215 OA
ENDBRANCH  21  24
ENDBRANCH  19  20
ENDBRANCH  18  19
ENDBRANCH  13  18
TORSDOF 5
