REMARK  7 active torsions:
REMARK  status: ('A' for Active; 'I' for Inactive)
REMARK    1  A    between atoms: C2_2  and  C20_23 
REMARK    2  A    between atoms: C11_11  and  C12_12 
REMARK    3  A    between atoms: C11_11  and  C18_20 
REMARK    4  A    between atoms: C12_12  and  C13_13 
REMARK    5  A    between atoms: C13_13  and  C14_14 
REMARK    6  A    between atoms: C14_14  and  C15_15 
REMARK    7  A    between atoms: C16_17  and  C17_18 
ROOT
HETATM    1  C1  UNL     1       0.342  -0.194   0.065  1.00  0.00     0.006 C 
HETATM    2  C2  UNL     1       0.526  -1.738   0.014  1.00  0.00     0.035 C 
HETATM    3  C3  UNL     1      -0.783  -2.560  -0.047  1.00  0.00     0.024 C 
HETATM    4  C4  UNL     1      -1.618  -2.608  -1.306  1.00  0.00    -0.048 C 
HETATM    5  C5  UNL     1      -1.856  -1.567  -2.117  1.00  0.00    -0.035 C 
HETATM    6  C6  UNL     1      -1.369  -0.157  -1.949  1.00  0.00     0.025 C 
HETATM    7  C7  UNL     1      -1.011   0.269  -0.519  1.00  0.00     0.005 C 
HETATM    8  C8  UNL     1      -2.256  -3.951  -1.598  1.00  0.00     0.026 C 
HETATM    9  C9  UNL     1       1.414  -1.894  -1.230  1.00  0.00     0.003 C 
HETATM   10  C10 UNL     1       2.376  -0.691  -1.217  1.00  0.00     0.003 C 
HETATM   11  C11 UNL     1       1.645   0.488  -0.499  1.00  0.00     0.031 C 
HETATM   12  C19 UNL     1       2.939  -0.435  -2.623  1.00  0.00     0.000 C 
ENDROOT
BRANCH  11  13
HETATM   13  C12 UNL     1       2.524   1.009   0.691  1.00  0.00     0.007 C 
BRANCH  13  14
HETATM   14  C13 UNL     1       3.825   1.747   0.323  1.00  0.00     0.024 C 
BRANCH  14  15
HETATM   15  C14 UNL     1       4.770   2.155   1.444  1.00  0.00    -0.013 C 
HETATM   16  C16 UNL     1       4.781   1.550   2.648  1.00  0.00     0.003 C 
BRANCH  15  17
HETATM   17  C15 UNL     1       5.777   3.224   1.068  1.00  0.00     0.204 C 
HETATM   18  O1  UNL     1       5.185   4.293   0.337  1.00  0.00    -0.216 OA
ENDBRANCH  15  17
BRANCH  16  19
HETATM   19  C17 UNL     1       5.761   1.782   3.770  1.00  0.00     0.208 C 
HETATM   20  O2  UNL     1       5.191   2.613   4.772  1.00  0.00    -0.215 OA
ENDBRANCH  16  19
ENDBRANCH  14  15
ENDBRANCH  13  14
ENDBRANCH  11  13
BRANCH  11  21
HETATM   21  C18 UNL     1       1.398   1.698  -1.421  1.00  0.00     0.182 C 
HETATM   22  O3  UNL     1       0.871   2.801  -0.706  1.00  0.00    -0.221 OA
ENDBRANCH  11  21
BRANCH   2  23
HETATM   23  C20 UNL     1       1.284  -2.226   1.273  1.00  0.00     0.182 C 
HETATM   24  O4  UNL     1       1.566  -3.612   1.232  1.00  0.00    -0.221 OA
ENDBRANCH   2  23
TORSDOF 7
