REMARK  3 active torsions:
REMARK  status: ('A' for Active; 'I' for Inactive)
REMARK    1  A    between atoms: C1_1  and  C2_2 
REMARK    2  A    between atoms: C2_2  and  C3_3 
REMARK    3  A    between atoms: C3_3  and  C4_4 
ROOT
HETATM    1  C4  UNL     1      -0.834   0.792   0.375  1.00  0.00     0.028 C 
HETATM    2  C5  UNL     1      -1.352  -0.002   1.558  1.00  0.00    -0.044 C 
HETATM    3  C6  UNL     1      -0.577  -1.251   1.900  1.00  0.00     0.022 C 
HETATM    4  C7  UNL     1      -0.473  -2.160   0.668  1.00  0.00     0.005 C 
HETATM    5  C8  UNL     1       0.043  -1.395  -0.566  1.00  0.00     0.012 C 
HETATM    6  C9  UNL     1      -0.778  -0.131  -0.875  1.00  0.00     0.082 C 
HETATM    7  C10 UNL     1      -2.216  -0.505  -1.312  1.00  0.00     0.010 C 
HETATM    8  C11 UNL     1      -2.219  -1.379  -2.573  1.00  0.00     0.001 C 
HETATM    9  C12 UNL     1      -1.285  -2.582  -2.401  1.00  0.00     0.003 C 
HETATM   10  C13 UNL     1       0.118  -2.222  -1.861  1.00  0.00     0.029 C 
HETATM   11  C14 UNL     1       0.891  -3.545  -1.651  1.00  0.00     0.003 C 
HETATM   12  C15 UNL     1       0.916  -1.378  -2.860  1.00  0.00     0.152 C 
HETATM   13  O1  UNL     1       0.571  -0.022  -2.949  1.00  0.00    -0.302 OA
HETATM   14  C16 UNL     1      -0.215   0.646  -2.067  1.00  0.00     0.271 C 
HETATM   15  O2  UNL     1      -0.498   1.814  -2.242  1.00  0.00    -0.264 OA
HETATM   16  C17 UNL     1      -2.430   0.379   2.261  1.00  0.00    -0.009 C 
ENDROOT
BRANCH   1  17
HETATM   17  C3  UNL     1       0.496   1.496   0.727  1.00  0.00     0.009 C 
BRANCH  17  18
HETATM   18  C2  UNL     1       0.347   2.516   1.869  1.00  0.00     0.029 C 
BRANCH  18  19
HETATM   19  C1  UNL     1       1.599   3.294   2.156  1.00  0.00     0.005 A 
HETATM   20  C18 UNL     1       2.857   3.046   1.767  1.00  0.00     0.118 A 
HETATM   21  O3  UNL     1       3.643   3.898   2.180  1.00  0.00    -0.303 OA
HETATM   22  C19 UNL     1       3.003   4.724   2.829  1.00  0.00     0.122 A 
HETATM   23  C20 UNL     1       1.699   4.425   2.868  1.00  0.00     0.025 A 
ENDBRANCH  18  19
ENDBRANCH  17  18
ENDBRANCH   1  17
TORSDOF 3
