REMARK  8 active torsions:
REMARK  status: ('A' for Active; 'I' for Inactive)
REMARK    1  A    between atoms: C10_14  and  C12_16 
REMARK    2  A    between atoms: C12_16  and  O5_19 
REMARK    3  A    between atoms: O5_19  and  C15_20 
REMARK    4  A    between atoms: C16_22  and  C20_29 
REMARK    5  A    between atoms: C20_29  and  O10_30 
REMARK    6  A    between atoms: O10_30  and  C21_31 
REMARK    7  A    between atoms: C21_31  and  C22_32 
REMARK    8  A    between atoms: C24_34  and  O12_39 
ROOT
HETATM    1  C15 UNL     1      -1.153  -0.009   0.397  1.00  0.00     0.270 C 
HETATM    2  O6  UNL     1      -0.215   0.197  -0.640  1.00  0.00    -0.326 OA
HETATM    3  C16 UNL     1       0.500   1.400  -0.579  1.00  0.00     0.181 C 
HETATM    4  C17 UNL     1      -0.444   2.590  -0.596  1.00  0.00     0.215 C 
HETATM    5  C18 UNL     1      -1.470   2.476   0.518  1.00  0.00     0.220 C 
HETATM    6  C19 UNL     1      -2.159   1.125   0.451  1.00  0.00     0.241 C 
HETATM    7  O7  UNL     1      -2.959   1.080  -0.709  1.00  0.00    -0.215 OA
HETATM    8  O8  UNL     1      -0.837   2.614   1.771  1.00  0.00    -0.218 OA
HETATM    9  O9  UNL     1      -1.098   2.655  -1.842  1.00  0.00    -0.218 OA
ENDROOT
BRANCH   1  10
HETATM   10  O5  UNL     1      -0.470  -0.099   1.629  1.00  0.00    -0.331 OA
BRANCH  10  11
HETATM   11  C12 UNL     1       0.087  -1.329   1.997  1.00  0.00     0.121 C 
HETATM   12  C13 UNL     1      -1.024  -2.336   2.342  1.00  0.00     0.032 C 
HETATM   13  C14 UNL     1       1.000  -1.919   0.912  1.00  0.00     0.032 C 
BRANCH  11  14
HETATM   14  C10 UNL     1       0.905  -1.059   3.287  1.00  0.00     0.151 C 
HETATM   15  O4  UNL     1       1.766  -2.168   3.575  1.00  0.00    -0.329 OA
HETATM   16  C2  UNL     1       2.952  -1.848   3.503  1.00  0.00     0.117 A 
HETATM   17  C1  UNL     1       3.131  -0.541   3.306  1.00  0.00     0.005 A 
HETATM   18  C3  UNL     1       3.999  -2.684   3.590  1.00  0.00     0.175 A 
HETATM   19  C6  UNL     1       4.356  -0.023   3.181  1.00  0.00    -0.000 A 
HETATM   20  C11 UNL     1       1.826   0.182   3.240  1.00  0.00     0.061 C 
HETATM   21  C5  UNL     1       5.414  -0.851   3.254  1.00  0.00     0.025 A 
HETATM   22  C4  UNL     1       5.245  -2.176   3.458  1.00  0.00     0.130 A 
HETATM   23  C7  UNL     1       6.658  -0.359   3.117  1.00  0.00     0.007 A 
HETATM   24  O1  UNL     1       6.307  -3.039   3.532  1.00  0.00    -0.271 OA
HETATM   25  C9  UNL     1       7.549  -2.494   3.380  1.00  0.00     0.300 A 
HETATM   26  C8  UNL     1       7.727  -1.165   3.176  1.00  0.00     0.069 A 
HETATM   27  O2  UNL     1       8.528  -3.210   3.430  1.00  0.00    -0.259 OA
HETATM   28  O3  UNL     1       3.826  -4.020   3.783  1.00  0.00    -0.186 OA
ENDBRANCH  11  14
ENDBRANCH  10  11
ENDBRANCH   1  10
BRANCH   3  29
HETATM   29  C20 UNL     1       1.512   1.408  -1.726  1.00  0.00     0.184 C 
BRANCH  29  30
HETATM   30  O10 UNL     1       2.532   0.505  -1.413  1.00  0.00    -0.296 OA
BRANCH  30  31
HETATM   31  C21 UNL     1       3.708   0.339  -2.105  1.00  0.00     0.296 C 
HETATM   32  O13 UNL     1       4.487  -0.416  -1.553  1.00  0.00    -0.259 OA
BRANCH  31  33
HETATM   33  C22 UNL     1       4.140   0.866  -3.297  1.00  0.00     0.065 A 
HETATM   34  C23 UNL     1       5.382   0.569  -3.742  1.00  0.00     0.032 A 
HETATM   35  C24 UNL     1       5.898   1.012  -4.905  1.00  0.00     0.119 A 
HETATM   36  C25 UNL     1       5.156   1.851  -5.654  1.00  0.00     0.153 A 
HETATM   37  C26 UNL     1       3.919   2.159  -5.240  1.00  0.00     0.030 A 
HETATM   38  O11 UNL     1       5.660   2.356  -6.812  1.00  0.00    -0.188 OA
HETATM   39  C27 UNL     1       3.419   1.676  -4.092  1.00  0.00     0.008 A 
BRANCH  35  40
HETATM   40  O12 UNL     1       7.181   0.716  -5.292  1.00  0.00    -0.326 OA
HETATM   41  C28 UNL     1       7.380  -0.620  -5.696  1.00  0.00     0.181 C 
ENDBRANCH  35  40
ENDBRANCH  31  33
ENDBRANCH  30  31
ENDBRANCH  29  30
ENDBRANCH   3  29
TORSDOF 8
