REMARK  13 active torsions:
REMARK  status: ('A' for Active; 'I' for Inactive)
REMARK    1  A    between atoms: C1_1  and  C14_17 
REMARK    2  A    between atoms: C2_2  and  C6_7 
REMARK    3  A    between atoms: C6_7  and  C7_8 
REMARK    4  A    between atoms: C8_9  and  C9_10 
REMARK    5  A    between atoms: C9_10  and  C10_11 
REMARK    6  A    between atoms: C10_11  and  C11_12 
REMARK    7  A    between atoms: C11_12  and  C12_13 
REMARK    8  A    between atoms: C12_13  and  O2_14 
REMARK    9  A    between atoms: C14_17  and  C15_18 
REMARK   10  A    between atoms: C16_19  and  C17_20 
REMARK   11  A    between atoms: C17_20  and  C18_21 
REMARK   12  A    between atoms: C18_21  and  C19_22 
REMARK   13  A    between atoms: C19_22  and  C20_23 
ROOT
HETATM    1  C1  UNL     1       0.114  -0.847   3.736  1.00  0.00     0.034 A 
HETATM    2  C2  UNL     1      -0.049   0.679   3.506  1.00  0.00     0.071 A 
HETATM    3  C3  UNL     1      -1.559   0.899   3.386  1.00  0.00     0.173 A 
HETATM    4  C4  UNL     1      -2.198  -0.269   3.623  1.00  0.00     0.033 A 
HETATM    5  C5  UNL     1      -1.333  -1.262   3.849  1.00  0.00    -0.023 A 
HETATM    6  O1  UNL     1      -2.098   1.951   3.136  1.00  0.00    -0.291 OA
ENDROOT
BRANCH   2   7
HETATM    7  C6  UNL     1       0.715   1.346   2.351  1.00  0.00     0.034 C 
BRANCH   7   8
HETATM    8  C7  UNL     1       2.201   1.454   2.583  1.00  0.00    -0.030 C 
HETATM    9  C8  UNL     1       3.117   1.686   1.629  1.00  0.00    -0.031 C 
BRANCH   9  10
HETATM   10  C9  UNL     1       2.825   1.881   0.162  1.00  0.00     0.026 C 
BRANCH  10  11
HETATM   11  C10 UNL     1       3.753   2.921  -0.486  1.00  0.00     0.015 C 
BRANCH  11  12
HETATM   12  C11 UNL     1       3.447   3.092  -1.983  1.00  0.00     0.096 C 
BRANCH  12  13
HETATM   13  C12 UNL     1       4.399   4.040  -2.693  1.00  0.00     0.272 C 
HETATM   14  O3  UNL     1       5.249   4.709  -2.151  1.00  0.00    -0.264 OA
BRANCH  13  15
HETATM   15  O2  UNL     1       4.167   4.022  -4.034  1.00  0.00    -0.299 OA
HETATM   16  C13 UNL     1       5.000   4.839  -4.822  1.00  0.00     0.184 C 
ENDBRANCH  13  15
ENDBRANCH  12  13
ENDBRANCH  11  12
ENDBRANCH  10  11
ENDBRANCH   9  10
ENDBRANCH   7   8
ENDBRANCH   2   7
BRANCH   1  17
HETATM   17  C14 UNL     1       0.795  -1.692   2.647  1.00  0.00     0.030 C 
BRANCH  17  18
HETATM   18  C15 UNL     1       2.293  -1.536   2.612  1.00  0.00    -0.030 C 
HETATM   19  C16 UNL     1       3.071  -1.725   1.535  1.00  0.00    -0.031 C 
BRANCH  19  20
HETATM   20  C17 UNL     1       2.588  -2.140   0.167  1.00  0.00     0.026 C 
BRANCH  20  21
HETATM   21  C18 UNL     1       3.685  -2.869  -0.627  1.00  0.00     0.005 C 
BRANCH  21  22
HETATM   22  C19 UNL     1       3.235  -3.213  -2.056  1.00  0.00     0.000 C 
BRANCH  22  23
HETATM   23  C20 UNL     1       4.335  -3.946  -2.841  1.00  0.00     0.000 C 
HETATM   24  C21 UNL     1       3.913  -4.229  -4.289  1.00  0.00     0.000 C 
ENDBRANCH  22  23
ENDBRANCH  21  22
ENDBRANCH  20  21
ENDBRANCH  19  20
ENDBRANCH  17  18
ENDBRANCH   1  17
TORSDOF 13
