REMARK  0 active torsions:
REMARK  status: ('A' for Active; 'I' for Inactive)
ROOT
HETATM    1  C1  UNL     1       0.316  -0.670   1.590  1.00  0.00    -0.030 C 
HETATM    2  C2  UNL     1       1.633  -1.381   1.342  1.00  0.00     0.051 C 
HETATM    3  C3  UNL     1       2.230  -0.448   0.307  1.00  0.00    -0.026 C 
HETATM    4  C4  UNL     1       1.794  -0.502  -0.963  1.00  0.00    -0.026 C 
HETATM    5  C5  UNL     1       1.555   0.768  -1.755  1.00  0.00     0.047 C 
HETATM    6  C6  UNL     1       0.251   1.297  -1.169  1.00  0.00    -0.044 C 
HETATM    7  C7  UNL     1      -0.865   0.554  -1.295  1.00  0.00    -0.034 C 
HETATM    8  C8  UNL     1      -2.134   0.647  -0.477  1.00  0.00     0.029 C 
HETATM    9  C9  UNL     1      -1.949   0.117   0.967  1.00  0.00     0.026 C 
HETATM   10  C10 UNL     1      -0.884  -0.968   1.054  1.00  0.00    -0.047 C 
HETATM   11  C11 UNL     1      -1.226  -2.280   0.390  1.00  0.00     0.026 C 
HETATM   12  C12 UNL     1       0.351   2.512  -0.281  1.00  0.00     0.026 C 
ENDROOT
TORSDOF 0
