REMARK  20 active torsions:
REMARK  status: ('A' for Active; 'I' for Inactive)
REMARK    1  A    between atoms: C2_2  and  O9_46 
REMARK    2  A    between atoms: C13_13  and  O1_15 
REMARK    3  A    between atoms: O1_15  and  C15_16 
REMARK    4  A    between atoms: C15_16  and  C16_17 
REMARK    5  A    between atoms: C17_18  and  C18_19 
REMARK    6  A    between atoms: C24_26  and  C27_29 
REMARK    7  A    between atoms: C27_29  and  O3_30 
REMARK    8  A    between atoms: O3_30  and  C28_31 
REMARK    9  A    between atoms: C28_31  and  C29_33 
REMARK   10  A    between atoms: O9_46  and  C38_47 
REMARK   11  A    between atoms: C40_49  and  O22_86 
REMARK   12  A    between atoms: C41_50  and  O11_54 
REMARK   13  A    between atoms: O11_54  and  C44_55 
REMARK   14  A    between atoms: C46_57  and  O21_84 
REMARK   15  A    between atoms: C47_58  and  O13_62 
REMARK   16  A    between atoms: O13_62  and  C50_63 
REMARK   17  A    between atoms: C52_65  and  O20_82 
REMARK   18  A    between atoms: C53_66  and  O14_67 
REMARK   19  A    between atoms: O14_67  and  C54_68 
REMARK   20  A    between atoms: C56_70  and  O17_76 
ROOT
HETATM    1  C1  UNL     1       2.881   4.538  -2.871  1.00  0.00     0.030 C 
HETATM    2  C2  UNL     1       3.332   3.611  -1.745  1.00  0.00     0.121 C 
HETATM    3  C3  UNL     1       4.449   2.679  -2.240  1.00  0.00     0.064 C 
HETATM    4  C4  UNL     1       5.261   3.201  -3.429  1.00  0.00     0.147 C 
HETATM    5  C5  UNL     1       5.453   4.731  -3.383  1.00  0.00     0.032 C 
HETATM    6  C6  UNL     1       4.043   5.383  -3.448  1.00  0.00     0.005 C 
HETATM    7  C7  UNL     1       6.333   5.125  -4.606  1.00  0.00     0.040 C 
HETATM    8  C8  UNL     1       7.697   4.439  -4.659  1.00  0.00     0.171 C 
HETATM    9  C9  UNL     1       7.662   3.031  -4.110  1.00  0.00     0.004 C 
HETATM   10  C10 UNL     1       6.583   2.482  -3.538  1.00  0.00     0.001 C 
HETATM   11  C11 UNL     1       8.301   4.487  -6.076  1.00  0.00     0.160 C 
HETATM   12  C12 UNL     1       7.954   5.747  -6.933  1.00  0.00     0.082 C 
HETATM   13  C13 UNL     1       7.537   6.938  -6.018  1.00  0.00     0.129 C 
HETATM   14  C14 UNL     1       6.481   6.624  -4.931  1.00  0.00     0.033 C 
HETATM   15  C24 UNL     1       6.813   5.314  -7.948  1.00  0.00     0.157 C 
HETATM   16  C25 UNL     1       6.671   3.794  -7.770  1.00  0.00     0.036 C 
HETATM   17  C26 UNL     1       7.904   3.331  -6.998  1.00  0.00     0.036 C 
HETATM   18  O5  UNL     1       5.609   5.894  -7.498  1.00  0.00    -0.223 OA
HETATM   19  C36 UNL     1       9.230   6.171  -7.714  1.00  0.00     0.008 C 
HETATM   20  O6  UNL     1       9.686   4.367  -5.858  1.00  0.00    -0.223 OA
HETATM   21  O7  UNL     1       8.574   5.147  -3.802  1.00  0.00    -0.219 OA
HETATM   22  C37 UNL     1       6.167   5.153  -2.074  1.00  0.00     0.003 C 
HETATM   23  O8  UNL     1       4.557   2.834  -4.604  1.00  0.00    -0.221 OA
ENDROOT
BRANCH   2  24
HETATM   24  O9  UNL     1       2.235   2.907  -1.211  1.00  0.00    -0.333 OA
BRANCH  24  25
HETATM   25  C38 UNL     1       2.574   2.123  -0.079  1.00  0.00     0.238 C 
HETATM   26  C39 UNL     1       1.406   1.962   0.878  1.00  0.00     0.094 C 
HETATM   27  C40 UNL     1       1.842   1.045   2.030  1.00  0.00     0.150 C 
HETATM   28  C41 UNL     1       2.422  -0.263   1.475  1.00  0.00     0.172 C 
HETATM   29  C42 UNL     1       3.455   0.021   0.382  1.00  0.00     0.147 C 
HETATM   30  O10 UNL     1       2.900   0.854  -0.591  1.00  0.00    -0.331 OA
HETATM   31  C43 UNL     1       3.966  -1.226  -0.344  1.00  0.00     0.035 C 
BRANCH  27  32
HETATM   32  O22 UNL     1       0.749   0.730   2.855  1.00  0.00    -0.351 OA
HETATM   33  C65 UNL     1       0.477   1.714   3.828  1.00  0.00     0.174 C 
ENDBRANCH  27  32
BRANCH  28  34
HETATM   34  O11 UNL     1       3.054  -0.951   2.526  1.00  0.00    -0.328 OA
BRANCH  34  35
HETATM   35  C44 UNL     1       2.847  -2.348   2.515  1.00  0.00     0.238 C 
HETATM   36  C45 UNL     1       4.001  -3.045   3.210  1.00  0.00     0.094 C 
HETATM   37  C46 UNL     1       3.711  -4.545   3.284  1.00  0.00     0.150 C 
HETATM   38  C47 UNL     1       2.342  -4.746   3.941  1.00  0.00     0.172 C 
HETATM   39  C48 UNL     1       1.270  -3.880   3.268  1.00  0.00     0.147 C 
HETATM   40  O12 UNL     1       1.661  -2.535   3.247  1.00  0.00    -0.331 OA
HETATM   41  C49 UNL     1      -0.091  -3.934   3.964  1.00  0.00     0.035 C 
BRANCH  37  42
HETATM   42  O21 UNL     1       4.673  -5.218   4.053  1.00  0.00    -0.351 OA
HETATM   43  C64 UNL     1       5.922  -5.361   3.410  1.00  0.00     0.174 C 
ENDBRANCH  37  42
BRANCH  38  44
HETATM   44  O13 UNL     1       1.988  -6.101   3.816  1.00  0.00    -0.328 OA
BRANCH  44  45
HETATM   45  C50 UNL     1       1.419  -6.658   4.981  1.00  0.00     0.238 C 
HETATM   46  C51 UNL     1       0.476  -7.782   4.614  1.00  0.00     0.094 C 
HETATM   47  C52 UNL     1      -0.137  -8.322   5.905  1.00  0.00     0.150 C 
HETATM   48  C53 UNL     1       0.969  -8.687   6.911  1.00  0.00     0.172 C 
HETATM   49  C61 UNL     1       2.082  -7.627   6.977  1.00  0.00     0.147 C 
HETATM   50  O19 UNL     1       2.494  -7.193   5.712  1.00  0.00    -0.331 OA
HETATM   51  C62 UNL     1       3.319  -8.159   7.706  1.00  0.00     0.035 C 
BRANCH  47  52
HETATM   52  O20 UNL     1      -0.918  -9.457   5.642  1.00  0.00    -0.351 OA
HETATM   53  C63 UNL     1      -2.111  -9.197   4.935  1.00  0.00     0.174 C 
ENDBRANCH  47  52
BRANCH  48  54
HETATM   54  O14 UNL     1       0.422  -8.748   8.206  1.00  0.00    -0.327 OA
BRANCH  54  55
HETATM   55  C54 UNL     1       0.279 -10.024   8.792  1.00  0.00     0.270 C 
HETATM   56  C55 UNL     1      -0.082  -9.809  10.251  1.00  0.00     0.238 C 
HETATM   57  C56 UNL     1      -0.984 -10.905  10.815  1.00  0.00     0.183 C 
HETATM   58  O18 UNL     1       1.107  -9.716  11.000  1.00  0.00    -0.215 OA
HETATM   59  C57 UNL     1      -0.807 -12.186  10.007  1.00  0.00     0.209 C 
HETATM   60  C58 UNL     1      -0.982 -11.971   8.505  1.00  0.00     0.151 C 
HETATM   61  O16 UNL     1       0.481 -12.704  10.255  1.00  0.00    -0.218 OA
HETATM   62  O15 UNL     1      -0.799 -10.634   8.136  1.00  0.00    -0.329 OA
HETATM   63  C59 UNL     1      -2.366 -12.397   8.009  1.00  0.00     0.035 C 
BRANCH  57  64
HETATM   64  O17 UNL     1      -2.336 -10.533  10.735  1.00  0.00    -0.349 OA
HETATM   65  C60 UNL     1      -2.767  -9.720  11.807  1.00  0.00     0.174 C 
ENDBRANCH  57  64
ENDBRANCH  54  55
ENDBRANCH  48  54
ENDBRANCH  44  45
ENDBRANCH  38  44
ENDBRANCH  34  35
ENDBRANCH  28  34
ENDBRANCH  24  25
ENDBRANCH   2  24
BRANCH  13  66
HETATM   66  O1  UNL     1       8.683   7.478  -5.416  1.00  0.00    -0.301 OA
BRANCH  66  67
HETATM   67  C15 UNL     1       8.613   8.685  -4.777  1.00  0.00     0.296 C 
HETATM   68  O2  UNL     1       7.691   9.441  -5.003  1.00  0.00    -0.259 OA
BRANCH  67  69
HETATM   69  C16 UNL     1       9.530   9.004  -3.822  1.00  0.00     0.068 C 
HETATM   70  C17 UNL     1       9.538  10.159  -3.132  1.00  0.00     0.005 C 
BRANCH  70  71
HETATM   71  C18 UNL     1      10.413  10.535  -2.174  1.00  0.00     0.000 A 
HETATM   72  C19 UNL     1      11.426   9.766  -1.726  1.00  0.00     0.000 A 
HETATM   73  C20 UNL     1      12.265  10.195  -0.768  1.00  0.00     0.000 A 
HETATM   74  C21 UNL     1      12.113  11.413  -0.231  1.00  0.00     0.000 A 
HETATM   75  C22 UNL     1      11.113  12.195  -0.659  1.00  0.00     0.000 A 
HETATM   76  C23 UNL     1      10.277  11.756  -1.614  1.00  0.00     0.000 A 
ENDBRANCH  70  71
ENDBRANCH  67  69
ENDBRANCH  66  67
ENDBRANCH  13  66
BRANCH  15  77
HETATM   77  C27 UNL     1       6.890   5.769  -9.432  1.00  0.00     0.153 C 
HETATM   78  C35 UNL     1       7.771   5.005 -10.427  1.00  0.00     0.035 C 
BRANCH  77  79
HETATM   79  O3  UNL     1       5.602   5.970  -9.964  1.00  0.00    -0.298 OA
BRANCH  79  80
HETATM   80  C28 UNL     1       4.733   4.932 -10.165  1.00  0.00     0.296 C 
HETATM   81  O4  UNL     1       5.158   3.837 -10.460  1.00  0.00    -0.259 OA
BRANCH  80  82
HETATM   82  C29 UNL     1       3.402   5.068  -9.888  1.00  0.00     0.063 A 
HETATM   83  C30 UNL     1       2.556   4.026 -10.010  1.00  0.00     0.005 A 
HETATM   84  C31 UNL     1       1.252   4.163  -9.717  1.00  0.00     0.000 A 
HETATM   85  C32 UNL     1       0.774   5.343  -9.297  1.00  0.00     0.000 A 
HETATM   86  C33 UNL     1       1.606   6.387  -9.175  1.00  0.00     0.000 A 
HETATM   87  C34 UNL     1       2.909   6.250  -9.468  1.00  0.00     0.005 A 
ENDBRANCH  80  82
ENDBRANCH  79  80
ENDBRANCH  77  79
ENDBRANCH  15  77
TORSDOF 20
