REMARK  17 active torsions:
REMARK  status: ('A' for Active; 'I' for Inactive)
REMARK    1  A    between atoms: C2_2  and  O7_37 
REMARK    2  A    between atoms: C13_13  and  O1_15 
REMARK    3  A    between atoms: O1_15  and  C15_16 
REMARK    4  A    between atoms: C15_16  and  C16_17 
REMARK    5  A    between atoms: C17_18  and  C18_19 
REMARK    6  A    between atoms: C24_26  and  C27_29 
REMARK    7  A    between atoms: O7_37  and  C31_38 
REMARK    8  A    between atoms: C33_40  and  O20_77 
REMARK    9  A    between atoms: C34_41  and  O9_45 
REMARK   10  A    between atoms: O9_45  and  C37_46 
REMARK   11  A    between atoms: C39_48  and  O19_75 
REMARK   12  A    between atoms: C40_49  and  O11_53 
REMARK   13  A    between atoms: O11_53  and  C43_54 
REMARK   14  A    between atoms: C45_56  and  O18_73 
REMARK   15  A    between atoms: C46_57  and  O12_58 
REMARK   16  A    between atoms: O12_58  and  C47_59 
REMARK   17  A    between atoms: C49_61  and  O15_67 
ROOT
HETATM    1  C31 UNL     1      14.337  -1.316  -0.490  1.00  0.00     0.238 C 
HETATM    2  C32 UNL     1      13.734  -0.575   0.688  1.00  0.00     0.094 C 
HETATM    3  C33 UNL     1      12.619  -1.429   1.297  1.00  0.00     0.150 C 
HETATM    4  C34 UNL     1      11.629  -1.810   0.191  1.00  0.00     0.172 C 
HETATM    5  C35 UNL     1      12.358  -2.419  -1.011  1.00  0.00     0.147 C 
HETATM    6  O8  UNL     1      13.354  -1.549  -1.470  1.00  0.00    -0.331 OA
HETATM    7  C36 UNL     1      11.438  -2.711  -2.198  1.00  0.00     0.035 C 
ENDROOT
BRANCH   1   8
HETATM    8  O7  UNL     1      15.294  -0.504  -1.140  1.00  0.00    -0.333 OA
BRANCH   8   9
HETATM    9  C2  UNL     1      16.296  -1.249  -1.779  1.00  0.00     0.122 C 
HETATM   10  C1  UNL     1      17.004  -0.351  -2.795  1.00  0.00     0.030 C 
HETATM   11  C6  UNL     1      17.746   0.802  -2.106  1.00  0.00     0.006 C 
HETATM   12  C5  UNL     1      18.728   0.332  -0.990  1.00  0.00     0.018 C 
HETATM   13  C4  UNL     1      18.668  -1.193  -0.932  1.00  0.00    -0.046 C 
HETATM   14  C7  UNL     1      20.179   0.722  -1.367  1.00  0.00     0.037 C 
HETATM   15  C30 UNL     1      18.275   0.976   0.339  1.00  0.00     0.004 C 
HETATM   16  C3  UNL     1      17.296  -1.797  -0.751  1.00  0.00     0.051 C 
HETATM   17  C10 UNL     1      19.747  -1.984  -1.080  1.00  0.00    -0.032 C 
HETATM   18  C9  UNL     1      21.166  -1.492  -1.259  1.00  0.00     0.058 C 
HETATM   19  C8  UNL     1      21.297  -0.077  -0.678  1.00  0.00     0.157 C 
HETATM   20  C11 UNL     1      22.677   0.636  -0.686  1.00  0.00     0.157 C 
HETATM   21  O6  UNL     1      20.984  -0.261   0.683  1.00  0.00    -0.223 OA
HETATM   22  C12 UNL     1      23.008   1.641  -1.843  1.00  0.00     0.082 C 
HETATM   23  C26 UNL     1      23.874  -0.317  -0.688  1.00  0.00     0.036 C 
HETATM   24  O5  UNL     1      22.735   1.331   0.542  1.00  0.00    -0.223 OA
HETATM   25  C13 UNL     1      21.726   2.312  -2.408  1.00  0.00     0.129 C 
HETATM   26  C24 UNL     1      23.859   0.793  -2.868  1.00  0.00     0.159 C 
HETATM   27  C29 UNL     1      23.892   2.792  -1.262  1.00  0.00     0.008 C 
HETATM   28  C14 UNL     1      20.529   2.213  -1.454  1.00  0.00     0.033 C 
HETATM   29  C25 UNL     1      24.167  -0.540  -2.170  1.00  0.00     0.036 C 
HETATM   30  O4  UNL     1      25.097   1.419  -3.103  1.00  0.00    -0.223 OA
BRANCH  25  31
HETATM   31  O1  UNL     1      21.919   3.648  -2.793  1.00  0.00    -0.301 OA
BRANCH  31  32
HETATM   32  C15 UNL     1      21.595   4.054  -4.065  1.00  0.00     0.296 C 
HETATM   33  O2  UNL     1      21.071   3.269  -4.821  1.00  0.00    -0.259 OA
BRANCH  32  34
HETATM   34  C16 UNL     1      21.841   5.340  -4.438  1.00  0.00     0.068 C 
HETATM   35  C17 UNL     1      21.684   5.991  -5.607  1.00  0.00     0.005 C 
BRANCH  35  36
HETATM   36  C18 UNL     1      21.373   5.647  -6.877  1.00  0.00     0.000 A 
HETATM   37  C19 UNL     1      21.096   6.643  -7.749  1.00  0.00     0.000 A 
HETATM   38  C20 UNL     1      20.779   6.412  -9.033  1.00  0.00     0.000 A 
HETATM   39  C21 UNL     1      20.750   5.158  -9.503  1.00  0.00     0.000 A 
HETATM   40  C22 UNL     1      21.062   4.152  -8.675  1.00  0.00     0.000 A 
HETATM   41  C23 UNL     1      21.376   4.403  -7.393  1.00  0.00     0.000 A 
ENDBRANCH  35  36
ENDBRANCH  32  34
ENDBRANCH  31  32
ENDBRANCH  25  31
BRANCH  26  42
HETATM   42  C27 UNL     1      23.303   0.571  -4.280  1.00  0.00     0.180 C 
HETATM   43  O3  UNL     1      23.265   1.833  -4.912  1.00  0.00    -0.221 OA
HETATM   44  C28 UNL     1      24.132  -0.363  -5.166  1.00  0.00     0.038 C 
ENDBRANCH  26  42
ENDBRANCH   8   9
ENDBRANCH   1   8
BRANCH   3  45
HETATM   45  O20 UNL     1      11.926  -0.729   2.299  1.00  0.00    -0.351 OA
HETATM   46  C58 UNL     1      12.654  -0.584   3.500  1.00  0.00     0.174 C 
ENDBRANCH   3  45
BRANCH   4  47
HETATM   47  O9  UNL     1      10.720  -2.750   0.709  1.00  0.00    -0.328 OA
BRANCH  47  48
HETATM   48  C37 UNL     1       9.371  -2.487   0.386  1.00  0.00     0.238 C 
HETATM   49  C38 UNL     1       8.529  -3.725   0.624  1.00  0.00     0.094 C 
HETATM   50  C39 UNL     1       7.059  -3.388   0.365  1.00  0.00     0.150 C 
HETATM   51  C40 UNL     1       6.662  -2.155   1.187  1.00  0.00     0.172 C 
HETATM   52  C41 UNL     1       7.677  -1.019   0.992  1.00  0.00     0.147 C 
HETATM   53  O10 UNL     1       8.973  -1.470   1.270  1.00  0.00    -0.331 OA
HETATM   54  C42 UNL     1       7.447   0.208   1.877  1.00  0.00     0.035 C 
BRANCH  50  55
HETATM   55  O19 UNL     1       6.217  -4.453   0.728  1.00  0.00    -0.351 OA
HETATM   56  C57 UNL     1       6.290  -5.560  -0.145  1.00  0.00     0.174 C 
ENDBRANCH  50  55
BRANCH  51  57
HETATM   57  O11 UNL     1       5.391  -1.742   0.750  1.00  0.00    -0.328 OA
BRANCH  57  58
HETATM   58  C43 UNL     1       4.554  -1.256   1.776  1.00  0.00     0.238 C 
HETATM   59  C44 UNL     1       3.530  -0.296   1.207  1.00  0.00     0.094 C 
HETATM   60  C45 UNL     1       2.698   0.238   2.372  1.00  0.00     0.150 C 
HETATM   61  C46 UNL     1       2.154  -0.921   3.219  1.00  0.00     0.172 C 
HETATM   62  C54 UNL     1       3.185  -2.030   3.471  1.00  0.00     0.147 C 
HETATM   63  O17 UNL     1       3.881  -2.372   2.304  1.00  0.00    -0.331 OA
HETATM   64  C55 UNL     1       2.536  -3.308   4.010  1.00  0.00     0.035 C 
BRANCH  60  65
HETATM   65  O18 UNL     1       1.610   1.001   1.919  1.00  0.00    -0.351 OA
HETATM   66  C56 UNL     1       1.972   2.252   1.375  1.00  0.00     0.174 C 
ENDBRANCH  60  65
BRANCH  61  67
HETATM   67  O12 UNL     1       1.779  -0.387   4.464  1.00  0.00    -0.327 OA
BRANCH  67  68
HETATM   68  C47 UNL     1       0.454  -0.643   4.871  1.00  0.00     0.270 C 
HETATM   69  C48 UNL     1       0.384  -0.288   6.339  1.00  0.00     0.238 C 
HETATM   70  C49 UNL     1      -1.039  -0.370   6.872  1.00  0.00     0.183 C 
HETATM   71  O16 UNL     1       1.262  -1.133   7.039  1.00  0.00    -0.215 OA
HETATM   72  C50 UNL     1      -1.892   0.517   5.967  1.00  0.00     0.209 C 
HETATM   73  C51 UNL     1      -1.704   0.164   4.494  1.00  0.00     0.151 C 
HETATM   74  O14 UNL     1      -1.553   1.866   6.193  1.00  0.00    -0.218 OA
HETATM   75  O13 UNL     1      -0.357   0.228   4.117  1.00  0.00    -0.329 OA
HETATM   76  C52 UNL     1      -2.503   1.084   3.570  1.00  0.00     0.035 C 
BRANCH  70  77
HETATM   77  O15 UNL     1      -1.546  -1.677   6.800  1.00  0.00    -0.349 OA
HETATM   78  C53 UNL     1      -1.393  -2.417   7.992  1.00  0.00     0.174 C 
ENDBRANCH  70  77
ENDBRANCH  67  68
ENDBRANCH  61  67
ENDBRANCH  57  58
ENDBRANCH  51  57
ENDBRANCH  47  48
ENDBRANCH   4  47
TORSDOF 17
