REMARK  16 active torsions:
REMARK  status: ('A' for Active; 'I' for Inactive)
REMARK    1  A    between atoms: C2_2  and  O8_36 
REMARK    2  A    between atoms: C13_13  and  O1_15 
REMARK    3  A    between atoms: O1_15  and  C15_16 
REMARK    4  A    between atoms: C15_16  and  C16_17 
REMARK    5  A    between atoms: C22_24  and  C25_27 
REMARK    6  A    between atoms: O8_36  and  C29_37 
REMARK    7  A    between atoms: C31_39  and  O21_76 
REMARK    8  A    between atoms: C32_40  and  O10_44 
REMARK    9  A    between atoms: O10_44  and  C35_45 
REMARK   10  A    between atoms: C37_47  and  O20_74 
REMARK   11  A    between atoms: C38_48  and  O12_52 
REMARK   12  A    between atoms: O12_52  and  C41_53 
REMARK   13  A    between atoms: C43_55  and  O19_72 
REMARK   14  A    between atoms: C44_56  and  O13_57 
REMARK   15  A    between atoms: O13_57  and  C45_58 
REMARK   16  A    between atoms: C47_60  and  O16_66 
ROOT
HETATM    1  C29 UNL     1       2.401   2.761  -0.628  1.00  0.00     0.238 C 
HETATM    2  C30 UNL     1       1.290   2.659   0.400  1.00  0.00     0.094 C 
HETATM    3  C31 UNL     1       1.805   1.821   1.580  1.00  0.00     0.150 C 
HETATM    4  C32 UNL     1       2.359   0.480   1.077  1.00  0.00     0.172 C 
HETATM    5  C33 UNL     1       3.328   0.698  -0.088  1.00  0.00     0.147 C 
HETATM    6  O9  UNL     1       2.705   1.462  -1.076  1.00  0.00    -0.331 OA
HETATM    7  C34 UNL     1       3.819  -0.578  -0.776  1.00  0.00     0.035 C 
ENDROOT
BRANCH   1   8
HETATM    8  O8  UNL     1       2.008   3.464  -1.795  1.00  0.00    -0.333 OA
BRANCH   8   9
HETATM    9  C2  UNL     1       3.066   4.180  -2.387  1.00  0.00     0.121 C 
HETATM   10  C1  UNL     1       2.579   4.963  -3.604  1.00  0.00     0.030 C 
HETATM   11  C6  UNL     1       3.689   5.848  -4.220  1.00  0.00     0.005 C 
HETATM   12  C5  UNL     1       5.138   5.300  -4.082  1.00  0.00     0.032 C 
HETATM   13  C4  UNL     1       5.051   3.762  -4.001  1.00  0.00     0.147 C 
HETATM   14  C7  UNL     1       6.015   5.639  -5.327  1.00  0.00     0.040 C 
HETATM   15  C28 UNL     1       5.793   5.883  -2.804  1.00  0.00     0.003 C 
HETATM   16  C3  UNL     1       4.250   3.286  -2.784  1.00  0.00     0.064 C 
HETATM   17  C10 UNL     1       6.423   3.131  -4.018  1.00  0.00     0.001 C 
HETATM   18  O7  UNL     1       4.406   3.270  -5.165  1.00  0.00    -0.221 OA
HETATM   19  C9  UNL     1       7.476   3.705  -4.613  1.00  0.00     0.004 C 
HETATM   20  C8  UNL     1       7.435   5.065  -5.269  1.00  0.00     0.171 C 
HETATM   21  C11 UNL     1       8.116   5.049  -6.651  1.00  0.00     0.161 C 
HETATM   22  O6  UNL     1       8.203   5.907  -4.430  1.00  0.00    -0.219 OA
HETATM   23  C12 UNL     1       7.702   6.208  -7.604  1.00  0.00     0.086 C 
HETATM   24  C24 UNL     1       7.867   3.789  -7.490  1.00  0.00     0.036 C 
HETATM   25  O5  UNL     1       9.492   5.082  -6.369  1.00  0.00    -0.223 OA
HETATM   26  C13 UNL     1       7.144   7.431  -6.812  1.00  0.00     0.130 C 
HETATM   27  C22 UNL     1       6.680   5.579  -8.620  1.00  0.00     0.182 C 
HETATM   28  C27 UNL     1       8.950   6.693  -8.406  1.00  0.00     0.008 C 
HETATM   29  C14 UNL     1       6.030   7.106  -5.796  1.00  0.00     0.033 C 
HETATM   30  C23 UNL     1       6.614   4.075  -8.315  1.00  0.00     0.041 C 
HETATM   31  O4  UNL     1       5.381   6.103  -8.447  1.00  0.00    -0.218 OA
BRANCH  26  32
HETATM   32  O1  UNL     1       8.208   8.039  -6.135  1.00  0.00    -0.301 OA
BRANCH  32  33
HETATM   33  C15 UNL     1       8.520   9.376  -6.119  1.00  0.00     0.296 C 
HETATM   34  O2  UNL     1       9.673   9.602  -5.802  1.00  0.00    -0.259 OA
BRANCH  33  35
HETATM   35  C16 UNL     1       7.754  10.486  -6.370  1.00  0.00     0.063 A 
HETATM   36  C17 UNL     1       8.342  11.703  -6.374  1.00  0.00     0.005 A 
HETATM   37  C18 UNL     1       7.655  12.831  -6.617  1.00  0.00     0.000 A 
HETATM   38  C19 UNL     1       6.338  12.777  -6.854  1.00  0.00     0.000 A 
HETATM   39  C20 UNL     1       5.726  11.586  -6.834  1.00  0.00     0.000 A 
HETATM   40  C21 UNL     1       6.425  10.466  -6.593  1.00  0.00     0.005 A 
ENDBRANCH  33  35
ENDBRANCH  32  33
ENDBRANCH  26  32
BRANCH  27  41
HETATM   41  C25 UNL     1       7.063   5.768 -10.097  1.00  0.00     0.178 C 
HETATM   42  O3  UNL     1       7.796   4.991 -10.668  1.00  0.00    -0.293 OA
HETATM   43  C26 UNL     1       6.474   6.950 -10.845  1.00  0.00     0.075 C 
ENDBRANCH  27  41
ENDBRANCH   8   9
ENDBRANCH   1   8
BRANCH   3  44
HETATM   44  O21 UNL     1       0.771   1.563   2.494  1.00  0.00    -0.351 OA
HETATM   45  C56 UNL     1       0.555   2.614   3.412  1.00  0.00     0.174 C 
ENDBRANCH   3  44
BRANCH   4  46
HETATM   46  O10 UNL     1       3.043  -0.143   2.136  1.00  0.00    -0.328 OA
BRANCH  46  47
HETATM   47  C35 UNL     1       2.902  -1.548   2.163  1.00  0.00     0.238 C 
HETATM   48  C36 UNL     1       4.100  -2.188   2.835  1.00  0.00     0.094 C 
HETATM   49  C37 UNL     1       3.874  -3.700   2.882  1.00  0.00     0.150 C 
HETATM   50  C38 UNL     1       2.523  -3.993   3.548  1.00  0.00     0.172 C 
HETATM   51  C39 UNL     1       1.400  -3.140   2.934  1.00  0.00     0.147 C 
HETATM   52  O11 UNL     1       1.750  -1.784   2.933  1.00  0.00    -0.331 OA
HETATM   53  C40 UNL     1       0.051  -3.229   3.652  1.00  0.00     0.035 C 
BRANCH  49  54
HETATM   54  O20 UNL     1       4.886  -4.338   3.618  1.00  0.00    -0.351 OA
HETATM   55  C55 UNL     1       6.092  -4.500   2.902  1.00  0.00     0.174 C 
ENDBRANCH  49  54
BRANCH  50  56
HETATM   56  O12 UNL     1       2.248  -5.359   3.353  1.00  0.00    -0.328 OA
BRANCH  56  57
HETATM   57  C41 UNL     1       1.561  -5.969   4.421  1.00  0.00     0.238 C 
HETATM   58  C42 UNL     1       0.676  -7.088   3.912  1.00  0.00     0.094 C 
HETATM   59  C43 UNL     1      -0.105  -7.619   5.112  1.00  0.00     0.150 C 
HETATM   60  C44 UNL     1       0.843  -7.959   6.271  1.00  0.00     0.172 C 
HETATM   61  C52 UNL     1       1.977  -6.941   6.476  1.00  0.00     0.147 C 
HETATM   62  O18 UNL     1       2.541  -6.522   5.264  1.00  0.00    -0.331 OA
HETATM   63  C53 UNL     1       3.108  -7.505   7.339  1.00  0.00     0.035 C 
BRANCH  59  64
HETATM   64  O19 UNL     1      -0.833  -8.774   4.781  1.00  0.00    -0.351 OA
HETATM   65  C54 UNL     1      -1.968  -8.527   3.979  1.00  0.00     0.174 C 
ENDBRANCH  59  64
BRANCH  60  66
HETATM   66  O13 UNL     1       0.063  -7.973   7.440  1.00  0.00    -0.327 OA
BRANCH  66  67
HETATM   67  C45 UNL     1       0.133  -9.140   8.224  1.00  0.00     0.270 C 
HETATM   68  C46 UNL     1      -0.508  -8.795   9.549  1.00  0.00     0.238 C 
HETATM   69  C47 UNL     1      -0.656 -10.016  10.443  1.00  0.00     0.183 C 
HETATM   70  O17 UNL     1       0.250  -7.780  10.158  1.00  0.00    -0.215 OA
HETATM   71  C48 UNL     1      -1.412 -11.063   9.625  1.00  0.00     0.209 C 
HETATM   72  C49 UNL     1      -0.755 -11.297   8.267  1.00  0.00     0.151 C 
HETATM   73  O15 UNL     1      -2.746 -10.641   9.455  1.00  0.00    -0.218 OA
HETATM   74  O14 UNL     1      -0.636 -10.104   7.544  1.00  0.00    -0.329 OA
HETATM   75  C50 UNL     1      -1.532 -12.299   7.413  1.00  0.00     0.035 C 
BRANCH  69  76
HETATM   76  O16 UNL     1       0.591 -10.557  10.793  1.00  0.00    -0.349 OA
HETATM   77  C51 UNL     1       1.086 -10.099  12.032  1.00  0.00     0.174 C 
ENDBRANCH  69  76
ENDBRANCH  66  67
ENDBRANCH  60  66
ENDBRANCH  56  57
ENDBRANCH  50  56
ENDBRANCH  46  47
ENDBRANCH   4  46
TORSDOF 16
