REMARK  8 active torsions:
REMARK  status: ('A' for Active; 'I' for Inactive)
REMARK    1  A    between atoms: C1_1  and  C18_22 
REMARK    2  A    between atoms: C3_3  and  C4_4 
REMARK    3  A    between atoms: C4_4  and  C5_5 
REMARK    4  A    between atoms: C10_10  and  C12_13 
REMARK    5  A    between atoms: C12_13  and  C13_14 
REMARK    6  A    between atoms: C13_14  and  C14_15 
REMARK    7  A    between atoms: C14_15  and  C15_16 
REMARK    8  A    between atoms: C18_22  and  C19_23 
ROOT
HETATM    1  C1  UNL     1       3.688  -0.899   0.143  1.00  0.00     0.223 C 
HETATM    2  C2  UNL     1       2.762   0.281   0.399  1.00  0.00     0.191 C 
HETATM    3  C3  UNL     1       2.903   1.324  -0.686  1.00  0.00     0.127 C 
HETATM    4  C9  UNL     1       4.354   1.801  -0.671  1.00  0.00     0.184 C 
HETATM    5  C10 UNL     1       5.382   0.919  -0.444  1.00  0.00     0.094 C 
HETATM    6  C11 UNL     1       5.096  -0.361  -0.093  1.00  0.00     0.149 C 
HETATM    7  O1  UNL     1       5.995  -1.375   0.033  1.00  0.00    -0.192 OA
HETATM    8  O3  UNL     1       4.505   2.979  -0.915  1.00  0.00    -0.291 OA
HETATM    9  O4  UNL     1       2.054   0.412   1.371  1.00  0.00    -0.293 OA
HETATM   10  O5  UNL     1       3.292  -1.550  -1.054  1.00  0.00    -0.211 OA
ENDROOT
BRANCH   5  11
HETATM   11  C12 UNL     1       6.668   1.379  -0.588  1.00  0.00     0.177 C 
HETATM   12  O2  UNL     1       6.897   2.505  -0.976  1.00  0.00    -0.291 OA
BRANCH  11  13
HETATM   13  C13 UNL     1       7.930   0.592  -0.229  1.00  0.00     0.069 C 
BRANCH  13  14
HETATM   14  C14 UNL     1       9.213   1.443  -0.130  1.00  0.00     0.008 C 
BRANCH  14  15
HETATM   15  C15 UNL     1      10.502   0.624   0.097  1.00  0.00     0.000 C 
HETATM   16  C16 UNL     1      10.484  -0.158   1.421  1.00  0.00     0.000 C 
HETATM   17  C17 UNL     1      11.730   1.552   0.058  1.00  0.00     0.000 C 
ENDBRANCH  14  15
ENDBRANCH  13  14
ENDBRANCH  11  13
ENDBRANCH   5  11
BRANCH   3  18
HETATM   18  C4  UNL     1       1.839   2.434  -0.584  1.00  0.00     0.041 C 
BRANCH  18  19
HETATM   19  C5  UNL     1       0.442   1.873  -0.723  1.00  0.00    -0.034 C 
HETATM   20  C6  UNL     1      -0.694   2.426  -0.263  1.00  0.00    -0.048 C 
HETATM   21  C7  UNL     1      -2.028   1.743  -0.457  1.00  0.00     0.026 C 
HETATM   22  C8  UNL     1      -0.762   3.746   0.465  1.00  0.00     0.026 C 
ENDBRANCH  18  19
ENDBRANCH   3  18
BRANCH   1  23
HETATM   23  C18 UNL     1       3.600  -1.908   1.304  1.00  0.00     0.070 C 
BRANCH  23  24
HETATM   24  C19 UNL     1       3.848  -3.334   0.872  1.00  0.00    -0.031 C 
HETATM   25  C20 UNL     1       2.930  -4.167   0.347  1.00  0.00    -0.048 C 
HETATM   26  C21 UNL     1       1.476  -3.815   0.125  1.00  0.00     0.026 C 
HETATM   27  C22 UNL     1       3.293  -5.571  -0.074  1.00  0.00     0.026 C 
ENDBRANCH  23  24
ENDBRANCH   1  23
TORSDOF 8
