REMARK  4 active torsions:
REMARK  status: ('A' for Active; 'I' for Inactive)
REMARK    1  A    between atoms: C1_1  and  O5_22 
REMARK    2  A    between atoms: C2_2  and  C12_16 
REMARK    3  A    between atoms: C3_3  and  O3_14 
REMARK    4  A    between atoms: C12_16  and  C13_17 
ROOT
HETATM    1  C1  UNL     1       2.098   0.988  -0.088  1.00  0.00     0.095 A 
HETATM    2  C2  UNL     1       3.228   0.254  -0.245  1.00  0.00     0.043 A 
HETATM    3  C3  UNL     1       3.146  -1.094  -0.187  1.00  0.00     0.176 A 
HETATM    4  N1  UNL     1       2.031  -1.675  -0.040  1.00  0.00    -0.221 NA
HETATM    5  C4  UNL     1       0.951  -1.027   0.042  1.00  0.00     0.110 A 
HETATM    6  C5  UNL     1       0.927   0.320   0.004  1.00  0.00     0.042 A 
HETATM    7  C6  UNL     1      -0.265   0.953   0.070  1.00  0.00     0.006 A 
HETATM    8  C7  UNL     1      -1.425   0.286   0.191  1.00  0.00     0.026 A 
HETATM    9  C8  UNL     1      -1.378  -1.049   0.243  1.00  0.00     0.121 A 
HETATM   10  C9  UNL     1      -0.209  -1.694   0.170  1.00  0.00     0.137 A 
HETATM   11  O1  UNL     1      -0.381  -2.911   0.229  1.00  0.00    -0.298 OA
HETATM   12  C10 UNL     1      -1.783  -3.148   0.357  1.00  0.00     0.304 A 
HETATM   13  O2  UNL     1      -2.322  -1.826   0.353  1.00  0.00    -0.299 OA
ENDROOT
BRANCH   2  14
HETATM   14  C12 UNL     1       4.544   1.006  -0.450  1.00  0.00     0.064 C 
BRANCH  14  15
HETATM   15  C13 UNL     1       5.803   0.261  -0.876  1.00  0.00     0.144 A 
HETATM   16  O4  UNL     1       6.472  -0.278   0.239  1.00  0.00    -0.356 OA
HETATM   17  C14 UNL     1       7.119   0.831  -0.718  1.00  0.00     0.118 A 
HETATM   18  C15 UNL     1       8.274   0.256  -1.524  1.00  0.00     0.032 C 
HETATM   19  C16 UNL     1       7.399   2.132   0.015  1.00  0.00     0.032 C 
ENDBRANCH  14  15
ENDBRANCH   2  14
BRANCH   1  20
HETATM   20  O5  UNL     1       2.131   2.361  -0.174  1.00  0.00    -0.328 OA
HETATM   21  C17 UNL     1       2.178   3.021   1.073  1.00  0.00     0.181 C 
ENDBRANCH   1  20
BRANCH   3  22
HETATM   22  O3  UNL     1       4.222  -1.938  -0.310  1.00  0.00    -0.312 OA
HETATM   23  C11 UNL     1       4.351  -2.936   0.678  1.00  0.00     0.183 C 
ENDBRANCH   3  22
TORSDOF 4
