REMARK  1 active torsions:
REMARK  status: ('A' for Active; 'I' for Inactive)
REMARK    1  A    between atoms: C1_1  and  O7_27 
ROOT
HETATM    1  C1  UNL     1       0.128  -0.021   0.230  1.00  0.00     0.119 A 
HETATM    2  C2  UNL     1       0.861  -1.152   0.274  1.00  0.00     0.153 A 
HETATM    3  C3  UNL     1       2.202  -1.081   0.286  1.00  0.00     0.029 A 
HETATM    4  C4  UNL     1       2.873   0.083   0.264  1.00  0.00     0.038 A 
HETATM    5  C5  UNL     1       2.150   1.215   0.201  1.00  0.00    -0.018 A 
HETATM    6  C6  UNL     1       0.807   1.142   0.192  1.00  0.00     0.022 A 
HETATM    7  C7  UNL     1       2.812   2.571   0.145  1.00  0.00     0.062 C 
HETATM    8  C8  UNL     1       4.308   2.458  -0.159  1.00  0.00     0.259 C 
HETATM    9  N1  UNL     1       4.949   1.414   0.626  1.00  0.00     0.172 N 
HETATM   10  C9  UNL     1       4.401   0.088   0.282  1.00  0.00     0.366 C 
HETATM   11  C10 UNL     1       4.920  -0.322  -1.107  1.00  0.00     0.233 C 
HETATM   12  C11 UNL     1       6.184  -0.821  -1.165  1.00  0.00     0.047 A 
HETATM   13  C12 UNL     1       6.825  -1.208  -0.040  1.00  0.00     0.090 A 
HETATM   14  C13 UNL     1       6.161  -1.220   1.151  1.00  0.00     0.300 C 
HETATM   15  O1  UNL     1       4.867  -0.813   1.276  1.00  0.00    -0.264 OA
HETATM   16  O2  UNL     1       6.694  -1.700   2.132  1.00  0.00    -0.259 OA
HETATM   17  C14 UNL     1       8.097  -1.638  -0.156  1.00  0.00     0.124 A 
HETATM   18  C15 UNL     1       8.696  -1.713  -1.351  1.00  0.00     0.119 A 
HETATM   19  C16 UNL     1       8.053  -1.376  -2.474  1.00  0.00     0.026 A 
HETATM   20  C17 UNL     1       6.791  -0.932  -2.365  1.00  0.00     0.005 A 
HETATM   21  O3  UNL     1       9.846  -2.131  -1.260  1.00  0.00    -0.300 OA
HETATM   22  C18 UNL     1      10.094  -2.378   0.120  1.00  0.00     0.304 A 
HETATM   23  O4  UNL     1       8.861  -2.003   0.738  1.00  0.00    -0.299 OA
HETATM   24  O5  UNL     1       4.256  -0.079  -2.091  1.00  0.00    -0.286 OA
HETATM   25  C19 UNL     1       4.913   1.741   2.047  1.00  0.00     0.289 C 
HETATM   26  O6  UNL     1       0.252  -2.370   0.304  1.00  0.00    -0.188 OA
ENDROOT
BRANCH   1  27
HETATM   27  O7  UNL     1      -1.243  -0.132   0.225  1.00  0.00    -0.326 OA
HETATM   28  C20 UNL     1      -2.024   1.041   0.203  1.00  0.00     0.181 C 
ENDBRANCH   1  27
TORSDOF 1
