REMARK  8 active torsions:
REMARK  status: ('A' for Active; 'I' for Inactive)
REMARK    1  A    between atoms: C9_9  and  O1_10 
REMARK    2  A    between atoms: O1_10  and  C10_11 
REMARK    3  A    between atoms: C10_11  and  C11_12 
REMARK    4  A    between atoms: C17_19  and  O3_20 
REMARK    5  A    between atoms: O3_20  and  C18_21 
REMARK    6  A    between atoms: C18_21  and  C19_22 
REMARK    7  A    between atoms: C27_35  and  O10_40 
REMARK    8  A    between atoms: C28_36  and  O9_38 
ROOT
HETATM    1  C1  UNL     1       2.059  -1.408  -0.636  1.00  0.00     0.012 A 
HETATM    2  C2  UNL     1       1.068  -0.494  -0.697  1.00  0.00     0.028 A 
HETATM    3  C3  UNL     1       0.992   0.652   0.015  1.00  0.00     0.031 A 
HETATM    4  C4  UNL     1      -0.046   0.737   0.888  1.00  0.00     0.155 A 
HETATM    5  C5  UNL     1      -0.237   1.899   1.527  1.00  0.00     0.144 A 
HETATM    6  C6  UNL     1       0.562   2.944   1.321  1.00  0.00     0.121 A 
HETATM    7  C7  UNL     1       1.590   2.850   0.476  1.00  0.00     0.028 A 
HETATM    8  C8  UNL     1       1.844   1.696  -0.177  1.00  0.00     0.026 A 
HETATM    9  C9  UNL     1       2.999   1.650  -1.183  1.00  0.00     0.098 C 
HETATM   10  C15 UNL     1       4.151   0.653  -0.899  1.00  0.00     0.009 C 
HETATM   11  C16 UNL     1       4.116  -0.103   0.456  1.00  0.00     0.173 C 
HETATM   12  C17 UNL     1       3.270  -1.381   0.302  1.00  0.00     0.178 C 
HETATM   13  O5  UNL     1       5.430  -0.554   0.719  1.00  0.00    -0.219 OA
HETATM   14  C23 UNL     1       3.781   0.688   1.728  1.00  0.00     0.040 C 
HETATM   15  C24 UNL     1       5.565   1.098  -1.345  1.00  0.00     0.031 C 
HETATM   16  O6  UNL     1       0.212   3.921   1.977  1.00  0.00    -0.299 OA
HETATM   17  C25 UNL     1      -0.943   3.537   2.721  1.00  0.00     0.304 A 
HETATM   18  O7  UNL     1      -1.124   2.175   2.331  1.00  0.00    -0.297 OA
HETATM   19  O8  UNL     1      -0.918  -0.287   1.116  1.00  0.00    -0.188 OA
HETATM   20  C26 UNL     1       0.009  -0.726  -1.507  1.00  0.00     0.155 A 
HETATM   21  C27 UNL     1      -0.119  -1.866  -2.212  1.00  0.00     0.141 A 
HETATM   22  C28 UNL     1       0.884  -2.766  -2.214  1.00  0.00     0.118 A 
HETATM   23  C29 UNL     1       1.923  -2.510  -1.401  1.00  0.00     0.025 A 
HETATM   24  O11 UNL     1      -1.001   0.186  -1.605  1.00  0.00    -0.188 OA
ENDROOT
BRANCH   9  25
HETATM   25  O1  UNL     1       3.438   2.918  -1.639  1.00  0.00    -0.274 OA
BRANCH  25  26
HETATM   26  C10 UNL     1       4.300   3.691  -0.905  1.00  0.00     0.296 C 
HETATM   27  O2  UNL     1       4.535   3.379   0.240  1.00  0.00    -0.259 OA
BRANCH  26  28
HETATM   28  C11 UNL     1       4.948   4.750  -1.470  1.00  0.00     0.037 C 
HETATM   29  C12 UNL     1       5.814   5.528  -0.789  1.00  0.00    -0.025 C 
HETATM   30  C13 UNL     1       6.222   5.429   0.659  1.00  0.00     0.030 C 
HETATM   31  C14 UNL     1       4.670   5.038  -2.931  1.00  0.00     0.036 C 
ENDBRANCH  26  28
ENDBRANCH  25  26
ENDBRANCH   9  25
BRANCH  12  32
HETATM   32  O3  UNL     1       2.921  -1.909   1.564  1.00  0.00    -0.294 OA
BRANCH  32  33
HETATM   33  C18 UNL     1       3.222  -3.212   1.874  1.00  0.00     0.292 C 
HETATM   34  O4  UNL     1       3.595  -3.963   1.000  1.00  0.00    -0.260 OA
BRANCH  33  35
HETATM   35  C19 UNL     1       3.152  -3.646   3.165  1.00  0.00     0.037 C 
HETATM   36  C20 UNL     1       3.489  -4.896   3.539  1.00  0.00    -0.025 C 
HETATM   37  C21 UNL     1       4.013  -6.017   2.678  1.00  0.00     0.030 C 
HETATM   38  C22 UNL     1       2.671  -2.655   4.206  1.00  0.00     0.036 C 
ENDBRANCH  33  35
ENDBRANCH  32  33
ENDBRANCH  12  32
BRANCH  21  39
HETATM   39  O10 UNL     1      -1.216  -2.041  -3.022  1.00  0.00    -0.324 OA
HETATM   40  C31 UNL     1      -2.260  -2.769  -2.414  1.00  0.00     0.182 C 
ENDBRANCH  21  39
BRANCH  22  41
HETATM   41  O9  UNL     1       0.738  -3.914  -2.958  1.00  0.00    -0.326 OA
HETATM   42  C30 UNL     1       1.529  -5.037  -2.645  1.00  0.00     0.181 C 
ENDBRANCH  22  41
TORSDOF 8
