REMARK  13 active torsions:
REMARK  status: ('A' for Active; 'I' for Inactive)
REMARK    1  A    between atoms: C3_3  and  C13_16 
REMARK    2  A    between atoms: C4_4  and  C6_7 
REMARK    3  A    between atoms: C6_7  and  C7_8 
REMARK    4  A    between atoms: C7_8  and  C8_9 
REMARK    5  A    between atoms: C8_9  and  C9_10 
REMARK    6  A    between atoms: C9_10  and  C10_11 
REMARK    7  A    between atoms: C10_11  and  C11_12 
REMARK    8  A    between atoms: C11_12  and  C12_13 
REMARK    9  A    between atoms: C14_17  and  C15_18 
REMARK   10  A    between atoms: C15_18  and  C16_19 
REMARK   11  A    between atoms: C16_19  and  C17_20 
REMARK   12  A    between atoms: C17_20  and  C18_21 
REMARK   13  A    between atoms: C18_21  and  C19_22 
ROOT
HETATM    1  C1  UNL     1      -2.416   3.044   0.301  1.00  0.00     0.033 C 
HETATM    2  C2  UNL     1      -2.050   1.802   0.637  1.00  0.00    -0.019 C 
HETATM    3  C3  UNL     1      -0.574   1.546   0.465  1.00  0.00     0.051 C 
HETATM    4  C4  UNL     1      -0.076   2.983   0.170  1.00  0.00     0.070 C 
HETATM    5  C5  UNL     1      -1.350   3.803  -0.039  1.00  0.00     0.173 C 
HETATM    6  O1  UNL     1      -1.394   4.954  -0.405  1.00  0.00    -0.291 OA
ENDROOT
BRANCH   3   7
HETATM    7  C13 UNL     1      -0.431   0.545  -0.655  1.00  0.00    -0.024 C 
HETATM    8  C14 UNL     1      -0.172  -0.764  -0.504  1.00  0.00     0.002 C 
BRANCH   8   9
HETATM    9  C15 UNL     1       0.037  -1.465   0.817  1.00  0.00     0.174 C 
HETATM   10  O4  UNL     1      -1.161  -1.412   1.571  1.00  0.00    -0.219 OA
BRANCH   9  11
HETATM   11  C16 UNL     1       0.459  -2.926   0.644  1.00  0.00     0.037 C 
BRANCH  11  12
HETATM   12  C17 UNL     1       0.730  -3.631   1.984  1.00  0.00     0.003 C 
BRANCH  12  13
HETATM   13  C18 UNL     1       1.212  -5.079   1.790  1.00  0.00     0.000 C 
BRANCH  13  14
HETATM   14  C19 UNL     1       1.485  -5.777   3.132  1.00  0.00     0.000 C 
HETATM   15  C20 UNL     1       1.973  -7.219   2.940  1.00  0.00     0.000 C 
ENDBRANCH  13  14
ENDBRANCH  12  13
ENDBRANCH  11  12
ENDBRANCH   9  11
ENDBRANCH   8   9
ENDBRANCH   3   7
BRANCH   4  16
HETATM   16  C6  UNL     1       0.964   3.177  -0.943  1.00  0.00     0.008 C 
BRANCH  16  17
HETATM   17  C7  UNL     1       2.346   2.598  -0.596  1.00  0.00     0.001 C 
BRANCH  17  18
HETATM   18  C8  UNL     1       3.335   2.792  -1.759  1.00  0.00     0.000 C 
BRANCH  18  19
HETATM   19  C9  UNL     1       4.797   2.546  -1.352  1.00  0.00     0.001 C 
BRANCH  19  20
HETATM   20  C10 UNL     1       5.750   2.732  -2.545  1.00  0.00     0.011 C 
BRANCH  20  21
HETATM   21  C11 UNL     1       7.229   2.679  -2.131  1.00  0.00     0.098 C 
BRANCH  21  22
HETATM   22  C12 UNL     1       8.175   2.856  -3.305  1.00  0.00     0.185 C 
HETATM   23  O2  UNL     1       9.453   2.970  -2.897  1.00  0.00    -0.647 OA
HETATM   24  O3  UNL     1       7.882   2.900  -4.476  1.00  0.00    -0.647 OA
ENDBRANCH  21  22
ENDBRANCH  20  21
ENDBRANCH  19  20
ENDBRANCH  18  19
ENDBRANCH  17  18
ENDBRANCH  16  17
ENDBRANCH   4  16
TORSDOF 13
