REMARK  3 active torsions:
REMARK  status: ('A' for Active; 'I' for Inactive)
REMARK    1  A    between atoms: C8_9  and  C22_26 
REMARK    2  A    between atoms: C14_16  and  O3_21 
REMARK    3  A    between atoms: O3_21  and  C19_22 
ROOT
HETATM    1  C1  UNL     1       0.453   0.525   0.188  1.00  0.00     0.086 C 
HETATM    2  C2  UNL     1      -0.207  -0.857   0.209  1.00  0.00     0.191 C 
HETATM    3  C3  UNL     1      -1.497  -0.601   0.990  1.00  0.00     0.197 C 
HETATM    4  C4  UNL     1      -1.481   0.633   1.544  1.00  0.00     0.011 C 
HETATM    5  C5  UNL     1      -0.379   1.295   1.169  1.00  0.00    -0.022 C 
HETATM    6  C6  UNL     1      -2.554   1.176   2.441  1.00  0.00     0.034 C 
HETATM    7  O1  UNL     1      -2.341  -1.453   1.132  1.00  0.00    -0.289 OA
HETATM    8  C7  UNL     1      -0.424  -1.421  -1.193  1.00  0.00     0.063 C 
HETATM    9  C8  UNL     1       0.537  -0.964  -2.280  1.00  0.00    -0.013 C 
HETATM   10  C9  UNL     1       1.790  -0.506  -2.085  1.00  0.00    -0.030 C 
HETATM   11  C10 UNL     1       2.554  -0.427  -0.777  1.00  0.00     0.052 C 
HETATM   12  C11 UNL     1       1.981   0.580   0.244  1.00  0.00     0.137 C 
HETATM   13  O2  UNL     1       2.332   1.877  -0.163  1.00  0.00    -0.225 OA
HETATM   14  C12 UNL     1       2.676   0.322   1.596  1.00  0.00     0.031 C 
HETATM   15  C13 UNL     1       4.205   0.531   1.482  1.00  0.00     0.030 C 
HETATM   16  C14 UNL     1       4.884   0.180   0.170  1.00  0.00     0.102 A 
HETATM   17  C15 UNL     1       4.057  -0.253  -1.015  1.00  0.00     0.034 A 
HETATM   18  C16 UNL     1       5.045  -1.221  -0.376  1.00  0.00     0.026 A 
HETATM   19  C17 UNL     1       6.252  -1.568  -1.247  1.00  0.00     0.002 C 
HETATM   20  C18 UNL     1       4.617  -2.394   0.494  1.00  0.00     0.002 C 
HETATM   21  C21 UNL     1       2.153   1.147   2.787  1.00  0.00     0.003 C 
HETATM   22  O6  UNL     1       0.483  -1.796   1.000  1.00  0.00    -0.217 OA
ENDROOT
BRANCH  16  23
HETATM   23  O3  UNL     1       6.038   0.952  -0.099  1.00  0.00    -0.307 OA
BRANCH  23  24
HETATM   24  C19 UNL     1       5.840   2.252  -0.452  1.00  0.00     0.272 C 
HETATM   25  C20 UNL     1       6.687   3.178   0.401  1.00  0.00     0.106 C 
HETATM   26  O4  UNL     1       5.130   2.627  -1.358  1.00  0.00    -0.264 OA
ENDBRANCH  23  24
ENDBRANCH  16  23
BRANCH   9  27
HETATM   27  C22 UNL     1      -0.058  -1.071  -3.671  1.00  0.00     0.204 C 
HETATM   28  O5  UNL     1       0.834  -0.723  -4.722  1.00  0.00    -0.216 OA
ENDBRANCH   9  27
TORSDOF 3
