REMARK  9 active torsions:
REMARK  status: ('A' for Active; 'I' for Inactive)
REMARK    1  A    between atoms: C3_3  and  C29_31 
REMARK    2  A    between atoms: C33_38  and  O13_54 
REMARK    3  A    between atoms: C35_40  and  O6_41 
REMARK    4  A    between atoms: O6_41  and  C36_42 
REMARK    5  A    between atoms: C37_44  and  C41_51 
REMARK    6  A    between atoms: O13_54  and  C42_55 
REMARK    7  A    between atoms: C43_57  and  C52_73 
REMARK    8  A    between atoms: C46_60  and  O15_61 
REMARK    9  A    between atoms: O15_61  and  C47_62 
ROOT
HETATM    1  C1  UNL     1       2.100  -2.344  -4.274  1.00  0.00     0.030 C 
HETATM    2  C2  UNL     1       1.345  -2.900  -3.121  1.00  0.00     0.120 C 
HETATM    3  C3  UNL     1       2.265  -3.876  -2.400  1.00  0.00     0.056 C 
HETATM    4  C4  UNL     1       3.686  -3.330  -2.400  1.00  0.00     0.007 C 
HETATM    5  C5  UNL     1       3.645  -1.807  -2.400  1.00  0.00     0.031 C 
HETATM    6  C6  UNL     1       3.080  -1.315  -3.726  1.00  0.00     0.005 C 
HETATM    7  C7  UNL     1       5.054  -1.261  -2.215  1.00  0.00     0.024 C 
HETATM    8  C8  UNL     1       5.616  -1.746  -0.885  1.00  0.00     0.006 C 
HETATM    9  C9  UNL     1       5.837  -3.252  -0.946  1.00  0.00     0.000 C 
HETATM   10  C10 UNL     1       4.418  -3.818  -1.157  1.00  0.00     0.000 C 
HETATM   11  C11 UNL     1       6.941  -1.049  -0.608  1.00  0.00     0.029 C 
HETATM   12  C12 UNL     1       6.709   0.451  -0.482  1.00  0.00     0.111 C 
HETATM   13  C13 UNL     1       6.094   0.969  -1.745  1.00  0.00    -0.004 C 
HETATM   14  C14 UNL     1       5.015   0.235  -2.223  1.00  0.00    -0.029 C 
HETATM   15  C15 UNL     1       8.039   1.152  -0.240  1.00  0.00     0.034 C 
HETATM   16  C16 UNL     1       8.322   0.906   1.236  1.00  0.00     0.055 C 
HETATM   17  C17 UNL     1       8.738  -0.545   1.438  1.00  0.00     0.118 C 
HETATM   18  C18 UNL     1       7.534  -1.582   0.689  1.00  0.00     0.032 C 
HETATM   19  O1  UNL     1       9.987  -0.766   0.842  1.00  0.00    -0.357 OA
HETATM   20  C19 UNL     1       9.445   1.825   1.698  1.00  0.00     0.005 C 
HETATM   21  C20 UNL     1      10.510   1.909   0.613  1.00  0.00     0.003 C 
HETATM   22  C21 UNL     1      10.473   0.666  -0.400  1.00  0.00     0.028 C 
HETATM   23  C22 UNL     1       9.122   0.490  -1.081  1.00  0.00     0.005 C 
HETATM   24  C23 UNL     1      11.531   0.885  -1.473  1.00  0.00     0.003 C 
HETATM   25  C24 UNL     1      10.737  -0.592   0.415  1.00  0.00     0.142 C 
HETATM   26  C25 UNL     1       6.980   1.148   1.914  1.00  0.00     0.145 C 
HETATM   27  O2  UNL     1       5.823   0.652   0.586  1.00  0.00    -0.355 OA
HETATM   28  C26 UNL     1       7.905  -1.318  -1.756  1.00  0.00     0.003 C 
HETATM   29  C27 UNL     1       4.630  -1.424   0.231  1.00  0.00     0.000 C 
HETATM   30  C28 UNL     1       2.759  -1.324  -1.260  1.00  0.00     0.143 C 
HETATM   31  C30 UNL     1       1.790  -4.056  -0.965  1.00  0.00     0.005 C 
HETATM   32  O4  UNL     1       0.970  -1.865  -2.252  1.00  0.00    -0.332 OA
HETATM   33  C31 UNL     1       0.245  -2.157  -1.088  1.00  0.00     0.266 C 
HETATM   34  O5  UNL     1      -0.977  -1.469  -1.102  1.00  0.00    -0.326 OA
HETATM   35  C32 UNL     1      -0.694  -0.147  -1.473  1.00  0.00     0.177 C 
HETATM   36  C33 UNL     1      -0.018   0.527  -0.287  1.00  0.00     0.177 C 
HETATM   37  C34 UNL     1       1.281  -0.193   0.033  1.00  0.00     0.177 C 
HETATM   38  C35 UNL     1       1.019  -1.690   0.137  1.00  0.00     0.203 C 
HETATM   39  O12 UNL     1       2.212   0.048  -0.988  1.00  0.00    -0.351 OA
ENDROOT
BRANCH  36  40
HETATM   40  O13 UNL     1       0.257   1.865  -0.604  1.00  0.00    -0.326 OA
BRANCH  40  41
HETATM   41  C42 UNL     1       0.882   2.695   0.337  1.00  0.00     0.267 C 
HETATM   42  O14 UNL     1       0.062   3.796   0.622  1.00  0.00    -0.326 OA
HETATM   43  C43 UNL     1      -0.387   4.297  -0.608  1.00  0.00     0.184 C 
HETATM   44  C44 UNL     1       0.789   5.001  -1.272  1.00  0.00     0.215 C 
HETATM   45  C45 UNL     1       1.907   4.001  -1.515  1.00  0.00     0.217 C 
HETATM   46  O21 UNL     1       1.254   6.026  -0.435  1.00  0.00    -0.218 OA
HETATM   47  C46 UNL     1       2.189   3.232  -0.231  1.00  0.00     0.207 C 
HETATM   48  O20 UNL     1       1.520   3.104  -2.520  1.00  0.00    -0.218 OA
BRANCH  43  49
HETATM   49  C52 UNL     1      -0.872   3.153  -1.489  1.00  0.00     0.214 C 
HETATM   50  O22 UNL     1      -2.217   3.359  -1.824  1.00  0.00    -0.218 OA
ENDBRANCH  43  49
BRANCH  47  51
HETATM   51  O15 UNL     1       2.787   4.089   0.705  1.00  0.00    -0.324 OA
BRANCH  51  52
HETATM   52  C47 UNL     1       3.141   3.605   1.972  1.00  0.00     0.270 C 
HETATM   53  O16 UNL     1       2.476   4.336   2.966  1.00  0.00    -0.326 OA
HETATM   54  C48 UNL     1       2.618   5.691   2.636  1.00  0.00     0.181 C 
HETATM   55  C49 UNL     1       4.059   6.086   2.931  1.00  0.00     0.215 C 
HETATM   56  C50 UNL     1       4.997   5.258   2.069  1.00  0.00     0.220 C 
HETATM   57  O19 UNL     1       4.340   5.851   4.285  1.00  0.00    -0.218 OA
HETATM   58  C51 UNL     1       4.637   3.784   2.196  1.00  0.00     0.241 C 
HETATM   59  O18 UNL     1       4.872   5.655   0.730  1.00  0.00    -0.218 OA
HETATM   60  O17 UNL     1       4.974   3.331   3.480  1.00  0.00    -0.215 OA
ENDBRANCH  51  52
ENDBRANCH  47  51
ENDBRANCH  40  41
ENDBRANCH  36  40
BRANCH  38  61
HETATM   61  O6  UNL     1       0.269  -1.953   1.292  1.00  0.00    -0.324 OA
BRANCH  61  62
HETATM   62  C36 UNL     1      -0.098  -3.270   1.605  1.00  0.00     0.270 C 
HETATM   63  O7  UNL     1      -1.494  -3.373   1.676  1.00  0.00    -0.326 OA
HETATM   64  C37 UNL     1      -1.942  -2.288   2.444  1.00  0.00     0.184 C 
HETATM   65  C38 UNL     1      -1.576  -2.573   3.895  1.00  0.00     0.215 C 
HETATM   66  C39 UNL     1      -0.066  -2.690   4.023  1.00  0.00     0.220 C 
HETATM   67  O10 UNL     1      -2.173  -3.775   4.300  1.00  0.00    -0.218 OA
HETATM   68  C40 UNL     1       0.460  -3.655   2.968  1.00  0.00     0.241 C 
HETATM   69  O9  UNL     1       0.517  -1.429   3.834  1.00  0.00    -0.218 OA
HETATM   70  O8  UNL     1       0.057  -4.959   3.286  1.00  0.00    -0.215 OA
BRANCH  64  71
HETATM   71  C41 UNL     1      -1.263  -1.007   1.979  1.00  0.00     0.214 C 
HETATM   72  O11 UNL     1      -2.235  -0.085   1.568  1.00  0.00    -0.218 OA
ENDBRANCH  64  71
ENDBRANCH  61  62
ENDBRANCH  38  61
BRANCH   3  73
HETATM   73  C29 UNL     1       2.238  -5.220  -3.116  1.00  0.00     0.184 C 
HETATM   74  O3  UNL     1       1.784  -6.211  -2.235  1.00  0.00    -0.221 OA
ENDBRANCH   3  73
TORSDOF 9
