REMARK  1 active torsions:
REMARK  status: ('A' for Active; 'I' for Inactive)
REMARK    1  A    between atoms: C13_13  and  O2_16 
ROOT
HETATM    1  C1  UNL     1      -0.993   3.764   1.194  1.00  0.00     0.119 A 
HETATM    2  C2  UNL     1      -2.106   3.182   0.745  1.00  0.00     0.119 A 
HETATM    3  C3  UNL     1      -2.091   1.908   0.341  1.00  0.00     0.022 A 
HETATM    4  C4  UNL     1      -0.944   1.197   0.383  1.00  0.00    -0.020 A 
HETATM    5  C5  UNL     1       0.175   1.783   0.875  1.00  0.00     0.006 A 
HETATM    6  C6  UNL     1       0.151   3.075   1.261  1.00  0.00     0.024 A 
HETATM    7  C7  UNL     1       1.482   1.030   0.998  1.00  0.00     0.176 C 
HETATM    8  C8  UNL     1       1.314  -0.481   0.933  1.00  0.00     0.077 C 
HETATM    9  C9  UNL     1       0.427  -0.885  -0.252  1.00  0.00     0.255 C 
HETATM   10  C10 UNL     1      -0.978  -0.256  -0.107  1.00  0.00     0.059 C 
HETATM   11  C11 UNL     1      -1.856  -1.060   0.856  1.00  0.00     0.035 C 
HETATM   12  C12 UNL     1      -1.752  -2.529   0.590  1.00  0.00     0.001 C 
HETATM   13  C13 UNL     1      -0.688  -3.167   0.073  1.00  0.00     0.126 C 
HETATM   14  C14 UNL     1       0.393  -2.424  -0.301  1.00  0.00     0.224 C 
HETATM   15  O1  UNL     1       1.398  -2.978  -0.684  1.00  0.00    -0.287 OA
HETATM   16  C16 UNL     1      -1.491  -0.325  -1.572  1.00  0.00     0.042 C 
HETATM   17  C17 UNL     1      -0.231  -0.498  -2.435  1.00  0.00     0.251 C 
HETATM   18  N1  UNL     1       0.862  -0.275  -1.511  1.00  0.00     0.143 N 
HETATM   19  C18 UNL     1       2.153  -0.639  -2.063  1.00  0.00     0.286 C 
HETATM   20  O3  UNL     1       2.117   1.338   2.227  1.00  0.00    -0.218 OA
HETATM   21  O4  UNL     1      -3.057   3.960   0.762  1.00  0.00    -0.300 OA
HETATM   22  C19 UNL     1      -2.576   5.207   1.267  1.00  0.00     0.304 A 
HETATM   23  O5  UNL     1      -1.194   4.933   1.509  1.00  0.00    -0.300 OA
ENDROOT
BRANCH  13  24
HETATM   24  O2  UNL     1      -0.793  -4.530  -0.105  1.00  0.00    -0.326 OA
HETATM   25  C15 UNL     1      -0.032  -5.176  -1.099  1.00  0.00     0.181 C 
ENDBRANCH  13  24
TORSDOF 1
