REMARK  11 active torsions:
REMARK  status: ('A' for Active; 'I' for Inactive)
REMARK    1  A    between atoms: C2_2  and  O3_30 
REMARK    2  A    between atoms: C18_19  and  C21_22 
REMARK    3  A    between atoms: C21_22  and  C22_23 
REMARK    4  A    between atoms: C22_23  and  C23_24 
REMARK    5  A    between atoms: C23_24  and  C24_25 
REMARK    6  A    between atoms: O3_30  and  C28_31 
REMARK    7  A    between atoms: C29_33  and  C45_60 
REMARK    8  A    between atoms: C31_35  and  O10_48 
REMARK    9  A    between atoms: C32_36  and  O5_37 
REMARK   10  A    between atoms: O5_37  and  C33_38 
REMARK   11  A    between atoms: O10_48  and  C39_49 
ROOT
HETATM    1  C28 UNL     1       1.931  -2.018  -0.378  1.00  0.00     0.266 C 
HETATM    2  O4  UNL     1       1.024  -2.312  -1.419  1.00  0.00    -0.326 OA
HETATM    3  C29 UNL     1       0.200  -1.267  -1.863  1.00  0.00     0.184 C 
HETATM    4  C30 UNL     1      -0.523  -0.559  -0.728  1.00  0.00     0.211 C 
HETATM    5  C31 UNL     1       0.392  -0.169   0.424  1.00  0.00     0.183 C 
HETATM    6  C32 UNL     1       1.279  -1.352   0.828  1.00  0.00     0.204 C 
HETATM    7  O15 UNL     1      -1.560  -1.387  -0.252  1.00  0.00    -0.218 OA
ENDROOT
BRANCH   1   8
HETATM    8  O3  UNL     1       2.963  -1.206  -0.899  1.00  0.00    -0.331 OA
BRANCH   8   9
HETATM    9  C2  UNL     1       3.959  -1.887  -1.622  1.00  0.00     0.122 C 
HETATM   10  C1  UNL     1       4.564  -0.911  -2.631  1.00  0.00     0.030 C 
HETATM   11  C6  UNL     1       5.201   0.281  -1.904  1.00  0.00     0.006 C 
HETATM   12  C5  UNL     1       6.323  -0.133  -0.914  1.00  0.00     0.015 C 
HETATM   13  C4  UNL     1       6.387  -1.653  -0.865  1.00  0.00    -0.047 C 
HETATM   14  C7  UNL     1       7.663   0.500  -1.399  1.00  0.00     0.004 C 
HETATM   15  C27 UNL     1       5.988   0.302   0.531  1.00  0.00     0.004 C 
HETATM   16  C3  UNL     1       5.074  -2.405  -0.701  1.00  0.00     0.051 C 
HETATM   17  C10 UNL     1       7.556  -2.314  -0.904  1.00  0.00    -0.035 C 
HETATM   18  C9  UNL     1       8.902  -1.664  -1.062  1.00  0.00     0.025 C 
HETATM   19  C8  UNL     1       8.896  -0.158  -0.757  1.00  0.00     0.005 C 
HETATM   20  C11 UNL     1      10.236   0.507  -1.140  1.00  0.00     0.003 C 
HETATM   21  C12 UNL     1      10.262   2.049  -1.023  1.00  0.00     0.006 C 
HETATM   22  C17 UNL     1      10.748   0.244  -2.565  1.00  0.00     0.030 C 
HETATM   23  C13 UNL     1       9.017   2.643  -1.718  1.00  0.00     0.000 C 
HETATM   24  C15 UNL     1      11.508   2.488  -1.834  1.00  0.00     0.048 C 
HETATM   25  C26 UNL     1      10.312   2.487   0.451  1.00  0.00     0.000 C 
HETATM   26  C14 UNL     1       7.706   2.031  -1.217  1.00  0.00     0.000 C 
HETATM   27  C16 UNL     1      11.841   1.301  -2.759  1.00  0.00     0.125 C 
HETATM   28  C19 UNL     1      12.832   2.551  -1.122  1.00  0.00    -0.024 C 
HETATM   29  O1  UNL     1      13.101   0.797  -2.322  1.00  0.00    -0.338 OA
HETATM   30  C18 UNL     1      13.610   1.515  -1.464  1.00  0.00     0.064 C 
HETATM   31  C20 UNL     1      13.181   3.654  -0.162  1.00  0.00     0.028 C 
BRANCH  30  32
HETATM   32  C21 UNL     1      14.944   1.164  -0.858  1.00  0.00     0.050 C 
BRANCH  32  33
HETATM   33  C22 UNL     1      14.840  -0.193  -0.141  1.00  0.00     0.009 C 
BRANCH  33  34
HETATM   34  C23 UNL     1      16.117  -0.619   0.610  1.00  0.00     0.034 C 
HETATM   35  C25 UNL     1      15.969  -2.066   1.114  1.00  0.00     0.003 C 
BRANCH  34  36
HETATM   36  C24 UNL     1      16.480   0.316   1.768  1.00  0.00     0.182 C 
HETATM   37  O2  UNL     1      15.388   0.461   2.654  1.00  0.00    -0.221 OA
ENDBRANCH  34  36
ENDBRANCH  33  34
ENDBRANCH  32  33
ENDBRANCH  30  32
ENDBRANCH   8   9
ENDBRANCH   1   8
BRANCH   6  38
HETATM   38  O5  UNL     1       0.479  -2.201   1.611  1.00  0.00    -0.324 OA
BRANCH  38  39
HETATM   39  C33 UNL     1       1.077  -3.382   2.101  1.00  0.00     0.270 C 
HETATM   40  O6  UNL     1       0.692  -4.431   1.233  1.00  0.00    -0.329 OA
HETATM   41  C34 UNL     1      -0.682  -4.722   1.238  1.00  0.00     0.151 C 
HETATM   42  C35 UNL     1      -1.139  -5.108   2.635  1.00  0.00     0.212 C 
HETATM   43  C38 UNL     1      -0.938  -5.836   0.222  1.00  0.00     0.035 C 
HETATM   44  C36 UNL     1      -0.813  -4.005   3.621  1.00  0.00     0.220 C 
HETATM   45  O9  UNL     1      -2.530  -5.318   2.677  1.00  0.00    -0.218 OA
HETATM   46  C37 UNL     1       0.653  -3.644   3.531  1.00  0.00     0.241 C 
HETATM   47  O8  UNL     1      -1.091  -4.470   4.920  1.00  0.00    -0.218 OA
HETATM   48  O7  UNL     1       1.391  -4.719   4.066  1.00  0.00    -0.215 OA
ENDBRANCH  38  39
ENDBRANCH   6  38
BRANCH   3  49
HETATM   49  C45 UNL     1       0.899  -0.335  -2.847  1.00  0.00     0.214 C 
HETATM   50  O16 UNL     1      -0.059   0.455  -3.525  1.00  0.00    -0.218 OA
ENDBRANCH   3  49
BRANCH   5  51
HETATM   51  O10 UNL     1       1.175   0.919   0.024  1.00  0.00    -0.326 OA
BRANCH  51  52
HETATM   52  C39 UNL     1       1.557   1.790   1.067  1.00  0.00     0.270 C 
HETATM   53  O11 UNL     1       0.584   2.811   1.148  1.00  0.00    -0.329 OA
HETATM   54  C40 UNL     1       0.545   3.682   0.047  1.00  0.00     0.151 C 
HETATM   55  C41 UNL     1       1.905   4.323  -0.193  1.00  0.00     0.212 C 
HETATM   56  C44 UNL     1      -0.529   4.737   0.323  1.00  0.00     0.035 C 
HETATM   57  C42 UNL     1       2.961   3.257  -0.389  1.00  0.00     0.220 C 
HETATM   58  O14 UNL     1       1.891   5.120  -1.352  1.00  0.00    -0.218 OA
HETATM   59  C43 UNL     1       2.941   2.324   0.796  1.00  0.00     0.241 C 
HETATM   60  O13 UNL     1       4.226   3.867  -0.477  1.00  0.00    -0.218 OA
HETATM   61  O12 UNL     1       3.447   3.010   1.916  1.00  0.00    -0.215 OA
ENDBRANCH  51  52
ENDBRANCH   5  51
TORSDOF 11
