REMARK  0 active torsions:
REMARK  status: ('A' for Active; 'I' for Inactive)
ROOT
HETATM    1  C1  UNL     1      -2.530  -0.926  -4.050  1.00  0.00     0.296 C 
HETATM    2  O1  UNL     1      -1.923  -1.966  -3.409  1.00  0.00    -0.303 OA
HETATM    3  C2  UNL     1      -0.795  -2.535  -4.007  1.00  0.00     0.104 C 
HETATM    4  C3  UNL     1       0.499  -1.809  -3.557  1.00  0.00     0.058 C 
HETATM    5  C4  UNL     1       0.357  -0.282  -3.389  1.00  0.00     0.150 C 
HETATM    6  C5  UNL     1      -0.571   0.408  -4.375  1.00  0.00     0.009 C 
HETATM    7  C6  UNL     1      -1.874   0.145  -4.566  1.00  0.00     0.066 C 
HETATM    8  C7  UNL     1      -0.089   0.102  -1.979  1.00  0.00     0.065 C 
HETATM    9  C8  UNL     1       1.209   0.553  -1.319  1.00  0.00     0.129 C 
HETATM   10  C9  UNL     1       0.881   1.640  -0.271  1.00  0.00     0.031 C 
HETATM   11  C10 UNL     1       1.981   1.976   0.752  1.00  0.00     0.003 C 
HETATM   12  C11 UNL     1       2.570   0.695   1.363  1.00  0.00     0.003 C 
HETATM   13  C12 UNL     1       3.167  -0.157   0.190  1.00  0.00     0.005 C 
HETATM   14  C13 UNL     1       2.011  -0.633  -0.731  1.00  0.00     0.028 C 
HETATM   15  C14 UNL     1       2.399  -1.763  -1.710  1.00  0.00     0.003 C 
HETATM   16  C15 UNL     1       1.195  -2.484  -2.349  1.00  0.00     0.005 C 
HETATM   17  C16 UNL     1       4.260   0.549  -0.663  1.00  0.00     0.000 C 
HETATM   18  C17 UNL     1       3.944  -1.246   0.971  1.00  0.00     0.030 C 
HETATM   19  C18 UNL     1       4.425  -0.550   2.255  1.00  0.00     0.118 C 
HETATM   20  C19 UNL     1       3.816   0.857   2.256  1.00  0.00     0.028 C 
HETATM   21  C20 UNL     1       3.783   1.311   3.720  1.00  0.00     0.007 C 
HETATM   22  C21 UNL     1       5.096   0.815   4.375  1.00  0.00     0.057 C 
HETATM   23  C22 UNL     1       6.221   0.423   3.403  1.00  0.00     0.195 A 
HETATM   24  O2  UNL     1       5.810  -0.439   2.353  1.00  0.00    -0.337 OA
HETATM   25  O3  UNL     1       7.173  -0.320   4.130  1.00  0.00    -0.281 OA
HETATM   26  C23 UNL     1       8.412   0.224   4.114  1.00  0.00     0.273 A 
HETATM   27  C24 UNL     1       8.397   1.497   3.300  1.00  0.00     0.091 A 
HETATM   28  C25 UNL     1       6.949   1.632   2.827  1.00  0.00     0.067 A 
HETATM   29  C26 UNL     1       8.876   2.708   4.110  1.00  0.00     0.011 C 
HETATM   30  O4  UNL     1       9.377  -0.234   4.687  1.00  0.00    -0.264 OA
HETATM   31  C27 UNL     1       3.569   2.823   3.880  1.00  0.00     0.000 C 
HETATM   32  C28 UNL     1       1.464   0.011   2.212  1.00  0.00     0.000 C 
HETATM   33  O5  UNL     1       1.864   1.169  -2.389  1.00  0.00    -0.226 OA
HETATM   34  O6  UNL     1       1.656   0.264  -3.535  1.00  0.00    -0.222 OA
HETATM   35  C29 UNL     1      -0.848  -4.027  -3.613  1.00  0.00     0.030 C 
HETATM   36  C30 UNL     1      -0.904  -2.541  -5.550  1.00  0.00     0.030 C 
HETATM   37  O7  UNL     1      -3.741  -0.917  -4.145  1.00  0.00    -0.259 OA
ENDROOT
TORSDOF 0
