REMARK  6 active torsions:
REMARK  status: ('A' for Active; 'I' for Inactive)
REMARK    1  A    between atoms: C3_3  and  O8_33 
REMARK    2  A    between atoms: C11_13  and  O3_15 
REMARK    3  A    between atoms: N1_19  and  C23_31 
REMARK    4  A    between atoms: C16_21  and  C21_28 
REMARK    5  A    between atoms: C19_24  and  O5_25 
REMARK    6  A    between atoms: C21_28  and  O7_29 
ROOT
HETATM    1  C1  UNL     1       1.807  -0.217   0.988  1.00  0.00     0.058 C 
HETATM    2  C2  UNL     1       2.117  -1.704   0.599  1.00  0.00     0.038 C 
HETATM    3  C3  UNL     1       2.663  -1.522  -0.854  1.00  0.00     0.120 C 
HETATM    4  C4  UNL     1       2.102  -0.179  -1.355  1.00  0.00     0.087 C 
HETATM    5  C5  UNL     1       3.196   0.920  -1.329  1.00  0.00     0.136 C 
HETATM    6  C6  UNL     1       4.003   0.817  -0.029  1.00  0.00     0.062 C 
HETATM    7  C7  UNL     1       3.025   0.726   1.144  1.00  0.00     0.012 C 
HETATM    8  C8  UNL     1       2.712   2.225   1.368  1.00  0.00     0.036 C 
HETATM    9  C9  UNL     1       3.712   3.042   0.524  1.00  0.00     0.179 C 
HETATM   10  C10 UNL     1       4.829   2.054   0.282  1.00  0.00     0.184 C 
HETATM   11  O1  UNL     1       5.669   2.378  -0.795  1.00  0.00    -0.221 OA
HETATM   12  O2  UNL     1       4.175   4.114   1.293  1.00  0.00    -0.221 OA
HETATM   13  C11 UNL     1       3.117   3.519  -0.801  1.00  0.00     0.148 C 
HETATM   14  C12 UNL     1       2.611   2.319  -1.629  1.00  0.00     0.063 C 
HETATM   15  O4  UNL     1       4.106   0.627  -2.362  1.00  0.00    -0.226 OA
HETATM   16  C14 UNL     1       0.952   0.025  -0.339  1.00  0.00     0.226 C 
HETATM   17  N1  UNL     1      -0.223  -0.923  -0.516  1.00  0.00     0.135 N 
HETATM   18  C15 UNL     1      -0.012  -2.414  -0.357  1.00  0.00     0.255 C 
HETATM   19  C16 UNL     1       1.118  -2.886   0.710  1.00  0.00     0.089 C 
HETATM   20  C17 UNL     1       0.625  -2.833   2.221  1.00  0.00     0.159 C 
HETATM   21  C18 UNL     1       1.161  -1.625   3.037  1.00  0.00     0.063 C 
HETATM   22  C19 UNL     1       1.023  -0.227   2.370  1.00  0.00     0.120 C 
HETATM   23  O6  UNL     1      -0.780  -2.856   2.300  1.00  0.00    -0.223 OA
ENDROOT
BRANCH  19  24
HETATM   24  C21 UNL     1       1.593  -4.322   0.427  1.00  0.00     0.147 C 
BRANCH  24  25
HETATM   25  O7  UNL     1       2.641  -4.760   1.260  1.00  0.00    -0.351 OA
HETATM   26  C22 UNL     1       3.894  -4.188   0.960  1.00  0.00     0.174 C 
ENDBRANCH  24  25
ENDBRANCH  19  24
BRANCH   3  27
HETATM   27  O8  UNL     1       2.414  -2.554  -1.761  1.00  0.00    -0.354 OA
HETATM   28  C25 UNL     1       3.241  -2.538  -2.906  1.00  0.00     0.174 C 
ENDBRANCH   3  27
BRANCH  17  29
HETATM   29  C23 UNL     1      -0.970  -0.685  -1.750  1.00  0.00     0.250 C 
HETATM   30  C24 UNL     1      -1.431   0.766  -1.955  1.00  0.00     0.037 C 
ENDBRANCH  17  29
BRANCH  22  31
HETATM   31  O5  UNL     1      -0.353   0.025   2.246  1.00  0.00    -0.354 OA
HETATM   32  C20 UNL     1      -0.726   1.378   2.383  1.00  0.00     0.174 C 
ENDBRANCH  22  31
BRANCH  13  33
HETATM   33  O3  UNL     1       4.012   4.242  -1.614  1.00  0.00    -0.351 OA
HETATM   34  C13 UNL     1       4.263   5.578  -1.230  1.00  0.00     0.174 C 
ENDBRANCH  13  33
TORSDOF 6
