REMARK  0 active torsions:
REMARK  status: ('A' for Active; 'I' for Inactive)
ROOT
HETATM    1  C1  UNL     1      -0.176   0.600  -0.126  1.00  0.00     0.160 C 
HETATM    2  C2  UNL     1      -0.301  -0.940  -0.100  1.00  0.00     0.045 C 
HETATM    3  C3  UNL     1       0.257  -1.495  -1.429  1.00  0.00     0.070 C 
HETATM    4  C4  UNL     1       1.629  -0.915  -1.760  1.00  0.00     0.178 C 
HETATM    5  C5  UNL     1       1.962   0.566  -1.479  1.00  0.00     0.182 C 
HETATM    6  C6  UNL     1       1.316   1.034  -0.124  1.00  0.00     0.088 C 
HETATM    7  C7  UNL     1       2.215   0.448   0.997  1.00  0.00     0.157 C 
HETATM    8  O1  UNL     1       1.591   0.174   2.219  1.00  0.00    -0.302 OA
HETATM    9  C8  UNL     1       0.699  -0.851   2.322  1.00  0.00     0.272 C 
HETATM   10  C9  UNL     1       0.469  -1.641   1.047  1.00  0.00     0.099 C 
HETATM   11  O2  UNL     1       0.160  -1.152   3.367  1.00  0.00    -0.264 OA
HETATM   12  C10 UNL     1       1.366   2.579   0.005  1.00  0.00     0.008 C 
HETATM   13  C11 UNL     1       3.484   0.778  -1.586  1.00  0.00     0.041 C 
HETATM   14  O3  UNL     1       1.441   1.330  -2.550  1.00  0.00    -0.218 OA
HETATM   15  O4  UNL     1       2.444  -1.616  -2.318  1.00  0.00    -0.293 OA
HETATM   16  C12 UNL     1      -1.836  -1.102   0.047  1.00  0.00     0.006 C 
HETATM   17  C13 UNL     1      -2.216  -0.032   1.084  1.00  0.00     0.036 C 
HETATM   18  C14 UNL     1      -1.231   1.123   0.869  1.00  0.00     0.180 C 
HETATM   19  O5  UNL     1      -0.728   1.562   2.100  1.00  0.00    -0.221 OA
HETATM   20  C15 UNL     1      -2.400  -2.489   0.378  1.00  0.00     0.000 C 
HETATM   21  O6  UNL     1      -0.726   1.031  -1.361  1.00  0.00    -0.223 OA
ENDROOT
TORSDOF 0
