REMARK  0 active torsions:
REMARK  status: ('A' for Active; 'I' for Inactive)
ROOT
HETATM    1  C1  UNL     1      -0.110   2.238  -0.489  1.00  0.00     0.119 A 
HETATM    2  C2  UNL     1      -0.443   0.957  -0.359  1.00  0.00     0.119 A 
HETATM    3  C3  UNL     1       0.402   0.102   0.226  1.00  0.00     0.029 A 
HETATM    4  C4  UNL     1       1.613   0.495   0.699  1.00  0.00     0.033 A 
HETATM    5  C5  UNL     1       1.948   1.810   0.554  1.00  0.00    -0.015 A 
HETATM    6  C6  UNL     1       1.073   2.658  -0.038  1.00  0.00     0.022 A 
HETATM    7  C7  UNL     1       3.253   2.509   0.921  1.00  0.00     0.062 C 
HETATM    8  C8  UNL     1       4.199   2.474  -0.296  1.00  0.00     0.255 C 
HETATM    9  N1  UNL     1       4.571   1.104  -0.620  1.00  0.00     0.144 N 
HETATM   10  C9  UNL     1       5.731   0.670   0.150  1.00  0.00     0.277 C 
HETATM   11  C10 UNL     1       5.669  -0.827   0.377  1.00  0.00     0.009 A 
HETATM   12  C11 UNL     1       4.742  -1.376   1.199  1.00  0.00    -0.014 A 
HETATM   13  C12 UNL     1       3.714  -0.537   1.944  1.00  0.00     0.095 C 
HETATM   14  C13 UNL     1       2.348  -0.521   1.260  1.00  0.00     0.177 C 
HETATM   15  O1  UNL     1       1.880  -1.643   1.278  1.00  0.00    -0.291 OA
HETATM   16  C14 UNL     1       4.731  -2.712   1.387  1.00  0.00     0.022 A 
HETATM   17  C15 UNL     1       5.622  -3.480   0.750  1.00  0.00     0.119 A 
HETATM   18  C16 UNL     1       6.525  -2.935  -0.068  1.00  0.00     0.119 A 
HETATM   19  C17 UNL     1       6.561  -1.612  -0.260  1.00  0.00     0.024 A 
HETATM   20  O2  UNL     1       7.254  -3.790  -0.564  1.00  0.00    -0.300 OA
HETATM   21  C18 UNL     1       6.832  -5.056  -0.053  1.00  0.00     0.304 A 
HETATM   22  O3  UNL     1       5.746  -4.700   0.805  1.00  0.00    -0.300 OA
HETATM   23  C19 UNL     1       4.799   0.926  -2.046  1.00  0.00     0.286 C 
HETATM   24  O4  UNL     1      -1.555   0.736  -0.831  1.00  0.00    -0.300 OA
HETATM   25  C20 UNL     1      -2.052   1.972  -1.348  1.00  0.00     0.304 A 
HETATM   26  O5  UNL     1      -0.992   2.882  -1.050  1.00  0.00    -0.300 OA
ENDROOT
TORSDOF 0
