REMARK  6 active torsions:
REMARK  status: ('A' for Active; 'I' for Inactive)
REMARK    1  A    between atoms: C1_1  and  C22_28 
REMARK    2  A    between atoms: C5_5  and  O5_24 
REMARK    3  A    between atoms: C11_11  and  C14_16 
REMARK    4  A    between atoms: C15_17  and  C16_18 
REMARK    5  A    between atoms: C17_19  and  C18_20 
REMARK    6  A    between atoms: O5_24  and  C20_25 
ROOT
HETATM    1  C1  UNL     1      -1.506  -1.141  -1.641  1.00  0.00     0.038 C 
HETATM    2  C2  UNL     1      -1.712  -1.830  -0.502  1.00  0.00    -0.024 C 
HETATM    3  C3  UNL     1      -1.078  -1.632   0.854  1.00  0.00     0.038 C 
HETATM    4  C4  UNL     1       0.294  -0.940   0.884  1.00  0.00     0.105 C 
HETATM    5  C5  UNL     1       0.173   0.581   0.749  1.00  0.00     0.113 C 
HETATM    6  C6  UNL     1      -0.543   1.019  -0.535  1.00  0.00     0.033 C 
HETATM    7  C7  UNL     1      -0.608   0.079  -1.752  1.00  0.00     0.035 C 
HETATM    8  C8  UNL     1       1.662   0.895   1.011  1.00  0.00     0.056 C 
HETATM    9  C9  UNL     1       1.943   0.090   2.311  1.00  0.00     0.006 C 
HETATM   10  C10 UNL     1       1.000  -1.122   2.245  1.00  0.00     0.012 C 
HETATM   11  C11 UNL     1       2.614   0.455  -0.110  1.00  0.00     0.122 C 
HETATM   12  C12 UNL     1       2.618   1.426  -1.307  1.00  0.00     0.035 C 
HETATM   13  O1  UNL     1       2.312  -0.839  -0.556  1.00  0.00    -0.302 OA
HETATM   14  C13 UNL     1       1.252  -1.579  -0.128  1.00  0.00     0.274 C 
HETATM   15  O2  UNL     1       1.081  -2.713  -0.527  1.00  0.00    -0.264 OA
ENDROOT
BRANCH  11  16
HETATM   16  C14 UNL     1       4.078   0.508   0.335  1.00  0.00     0.001 C 
HETATM   17  C15 UNL     1       5.072  -0.102  -0.336  1.00  0.00    -0.002 C 
BRANCH  17  18
HETATM   18  C16 UNL     1       6.370  -0.011   0.005  1.00  0.00     0.002 C 
HETATM   19  C17 UNL     1       7.384  -0.575  -0.684  1.00  0.00     0.043 C 
HETATM   20  C19 UNL     1       7.138  -1.371  -1.951  1.00  0.00     0.037 C 
BRANCH  19  21
HETATM   21  C18 UNL     1       8.665  -0.422  -0.241  1.00  0.00     0.207 C 
HETATM   22  O3  UNL     1       9.731  -0.952  -0.883  1.00  0.00    -0.644 OA
HETATM   23  O4  UNL     1       8.929   0.200   0.763  1.00  0.00    -0.644 OA
ENDBRANCH  19  21
ENDBRANCH  17  18
ENDBRANCH  11  16
BRANCH   5  24
HETATM   24  O5  UNL     1      -0.585   1.059   1.832  1.00  0.00    -0.306 OA
BRANCH  24  25
HETATM   25  C20 UNL     1      -0.738   2.399   2.016  1.00  0.00     0.272 C 
HETATM   26  C21 UNL     1      -1.609   2.660   3.228  1.00  0.00     0.106 C 
HETATM   27  O6  UNL     1      -0.257   3.265   1.321  1.00  0.00    -0.264 OA
ENDBRANCH  24  25
ENDBRANCH   5  24
BRANCH   1  28
HETATM   28  C22 UNL     1      -2.122  -1.572  -2.781  1.00  0.00     0.206 C 
HETATM   29  O7  UNL     1      -2.860  -2.532  -2.800  1.00  0.00    -0.644 OA
HETATM   30  O8  UNL     1      -1.946  -0.972  -3.981  1.00  0.00    -0.644 OA
ENDBRANCH   1  28
TORSDOF 6
