REMARK  0 active torsions:
REMARK  status: ('A' for Active; 'I' for Inactive)
ROOT
HETATM    1  C1  UNL     1      -0.630   1.414  -0.003  1.00  0.00     0.232 A 
HETATM    2  O1  UNL     1      -1.430   2.710  -0.003  1.00  0.00    -0.168 OA
HETATM    3  C2  UNL     1      -1.702   0.582  -0.003  1.00  0.00     0.148 A 
HETATM    4  N1  UNL     1      -2.071  -0.941  -0.003  1.00  0.00    -0.214 NA
HETATM    5  C3  UNL     1      -0.686  -2.249  -0.003  1.00  0.00     0.228 A 
HETATM    6  C4  UNL     1       0.837  -2.249  -0.003  1.00  0.00     0.133 A 
HETATM    7  N2  UNL     1       2.155  -1.488  -0.003  1.00  0.00    -0.239 NA
HETATM    8  C5  UNL     1       3.602  -2.565  -0.003  1.00  0.00     0.244 A 
HETATM    9  C6  UNL     1       4.921  -1.803  -0.003  1.00  0.00     0.185 A 
HETATM   10  N3  UNL     1       6.240  -2.565  -0.003  1.00  0.00    -0.297 N 
HETATM   11  C7  UNL     1       7.559  -1.803  -0.003  1.00  0.00     0.208 A 
HETATM   12  O2  UNL     1       8.321  -0.484  -0.003  1.00  0.00    -0.170 OA
HETATM   13  C8  UNL     1       8.454  -2.617  -0.003  1.00  0.00     0.100 A 
HETATM   14  N4  UNL     1       9.976  -2.617  -0.003  1.00  0.00    -0.303 N 
HETATM   15  C9  UNL     1      11.499  -2.617  -0.003  1.00  0.00     0.206 C 
HETATM   16  C10 UNL     1      12.576  -1.540  -0.003  1.00  0.00     0.081 A 
HETATM   17  N5  UNL     1      12.576  -0.017  -0.003  1.00  0.00    -0.311 N 
HETATM   18  C11 UNL     1      11.815   1.302  -0.003  1.00  0.00     0.162 A 
HETATM   19  C12 UNL     1      10.292   1.302  -0.003  1.00  0.00     0.187 A 
HETATM   20  N6  UNL     1       8.973   2.063  -0.003  1.00  0.00    -0.297 N 
HETATM   21  C13 UNL     1       7.654   1.302  -0.003  1.00  0.00     0.213 A 
HETATM   22  C14 UNL     1       6.335   2.063  -0.003  1.00  0.00     0.125 A 
HETATM   23  N7  UNL     1       5.016   1.302  -0.003  1.00  0.00    -0.215 NA
HETATM   24  C15 UNL     1       3.697   2.063  -0.003  1.00  0.00     0.232 A 
HETATM   25  C16 UNL     1       2.378   1.302  -0.003  1.00  0.00     0.148 A 
HETATM   26  N8  UNL     1       0.689   2.063  -0.003  1.00  0.00    -0.213 NA
HETATM   27  O3  UNL     1       3.697   3.586  -0.003  1.00  0.00    -0.168 OA
HETATM   28  C17 UNL     1       6.335   3.586  -0.003  1.00  0.00     0.015 C 
HETATM   29  C18 UNL     1       6.889   4.703  -0.196  1.00  0.00    -0.038 A 
HETATM   30  C19 UNL     1       6.129   6.022  -0.200  1.00  0.00     0.029 A 
HETATM   31  C20 UNL     1       6.885   7.338  -0.072  1.00  0.00     0.058 A 
HETATM   32  C21 UNL     1       8.403   7.334   0.059  1.00  0.00     0.105 A 
HETATM   33  C22 UNL     1       9.163   6.015   0.062  1.00  0.00     0.003 A 
HETATM   34  C23 UNL     1       8.407   4.699  -0.065  1.00  0.00     0.050 A 
HETATM   35  O4  UNL     1       9.450   8.431   0.201  1.00  0.00    -0.195 OA
HETATM   36  O5  UNL     1       7.260  -0.169  -0.003  1.00  0.00    -0.169 OA
HETATM   37  C24 UNL     1      10.292   2.825  -0.003  1.00  0.00     0.067 A 
HETATM   38  C25 UNL     1      11.369   3.902  -0.003  1.00  0.00     0.022 A 
HETATM   39  C26 UNL     1      10.607   5.221  -0.003  1.00  0.00    -0.003 C 
HETATM   40  C27 UNL     1      12.840   3.508  -0.003  1.00  0.00     0.178 A 
HETATM   41  O6  UNL     1      12.576   2.621  -0.003  1.00  0.00    -0.313 OA
HETATM   42  C28 UNL     1      14.025   0.454  -0.003  1.00  0.00     0.108 A 
HETATM   43  C29 UNL     1      14.920  -0.779  -0.003  1.00  0.00     0.031 A 
HETATM   44  C30 UNL     1      14.025  -2.011  -0.003  1.00  0.00     0.050 A 
HETATM   45  O7  UNL     1      12.261  -3.936  -0.003  1.00  0.00    -0.170 OA
HETATM   46  C31 UNL     1      10.447  -4.065  -0.003  1.00  0.00     0.113 A 
HETATM   47  C32 UNL     1       9.215  -4.961  -0.003  1.00  0.00     0.052 A 
HETATM   48  C33 UNL     1       7.983  -4.065  -0.003  1.00  0.00    -0.001 A 
HETATM   49  C34 UNL     1       4.921  -3.326  -0.003  1.00  0.00     0.205 A 
HETATM   50  C35 UNL     1       5.998  -4.403  -0.003  1.00  0.00     0.002 A 
HETATM   51  C36 UNL     1       7.521  -4.403  -0.003  1.00  0.00    -0.007 A 
HETATM   52  C37 UNL     1       5.237  -5.722  -0.003  1.00  0.00     0.031 C 
HETATM   53  O8  UNL     1       3.602  -4.088  -0.003  1.00  0.00    -0.314 OA
HETATM   54  C38 UNL     1       0.837  -3.772  -0.003  1.00  0.00     0.232 A 
HETATM   55  O9  UNL     1      -0.482  -4.534  -0.003  1.00  0.00    -0.208 OA
HETATM   56  O10 UNL     1      -1.448  -3.568  -0.003  1.00  0.00    -0.174 OA
ENDROOT
TORSDOF 0
