REMARK  0 active torsions:
REMARK  status: ('A' for Active; 'I' for Inactive)
ROOT
HETATM    1  C1  UNL     1      -2.244   1.278   0.524  1.00  0.00     0.037 C 
HETATM    2  C2  UNL     1      -1.893   0.532   1.828  1.00  0.00     0.034 C 
HETATM    3  C3  UNL     1      -0.665  -0.294   1.581  1.00  0.00     0.040 A 
HETATM    4  C4  UNL     1       0.599   0.131   1.698  1.00  0.00     0.009 A 
HETATM    5  C5  UNL     1       1.545  -0.921   1.204  1.00  0.00     0.170 A 
HETATM    6  C6  UNL     1       2.336  -0.557  -0.028  1.00  0.00     0.026 A 
HETATM    7  C7  UNL     1       2.255   0.476  -0.893  1.00  0.00     0.078 A 
HETATM    8  C8  UNL     1       1.325   1.668  -0.906  1.00  0.00     0.081 C 
HETATM    9  C9  UNL     1      -0.159   1.326  -0.976  1.00  0.00     0.124 A 
HETATM   10  C10 UNL     1      -1.009   1.990  -0.014  1.00  0.00     0.141 A 
HETATM   11  O1  UNL     1      -1.138   2.568  -1.284  1.00  0.00    -0.356 OA
HETATM   12  C11 UNL     1      -0.570   0.198  -1.910  1.00  0.00     0.033 C 
HETATM   13  O2  UNL     1       3.101   0.364  -1.785  1.00  0.00    -0.310 OA
HETATM   14  C12 UNL     1       3.748  -0.662  -1.604  1.00  0.00     0.118 A 
HETATM   15  C13 UNL     1       3.333  -1.314  -0.514  1.00  0.00     0.003 A 
HETATM   16  C14 UNL     1       3.868  -2.603   0.028  1.00  0.00     0.033 C 
HETATM   17  O3  UNL     1       0.687  -2.024   0.918  1.00  0.00    -0.292 OA
HETATM   18  C15 UNL     1      -0.585  -1.564   1.119  1.00  0.00     0.292 A 
HETATM   19  O4  UNL     1      -1.567  -2.237   0.890  1.00  0.00    -0.259 OA
ENDROOT
TORSDOF 0
