REMARK  5 active torsions:
REMARK  status: ('A' for Active; 'I' for Inactive)
REMARK    1  A    between atoms: C1_1  and  C2_2 
REMARK    2  A    between atoms: C1_1  and  C30_34 
REMARK    3  A    between atoms: C2_2  and  C3_3 
REMARK    4  A    between atoms: C4_4  and  C5_5 
REMARK    5  A    between atoms: C30_34  and  O5_35 
ROOT
HETATM    1  C3  UNL     1       1.688  -1.443   1.484  1.00  0.00     0.003 A 
HETATM    2  C4  UNL     1       1.770  -2.946   1.097  1.00  0.00     0.028 C 
HETATM    3  C8  UNL     1       3.162  -3.564   1.374  1.00  0.00     0.002 C 
HETATM    4  C9  UNL     1       4.284  -2.767   0.706  1.00  0.00     0.000 C 
HETATM    5  C10 UNL     1       4.347  -1.333   1.251  1.00  0.00     0.000 C 
HETATM    6  C11 UNL     1       2.990  -0.634   1.477  1.00  0.00     0.000 A 
HETATM    7  C12 UNL     1       2.885   0.837   1.057  1.00  0.00     0.000 C 
HETATM    8  C13 UNL     1       4.148   1.722   1.010  1.00  0.00     0.000 C 
HETATM    9  C14 UNL     1       5.444   0.940   1.265  1.00  0.00     0.002 C 
HETATM   10  C15 UNL     1       5.368  -0.431   0.515  1.00  0.00     0.002 C 
HETATM   11  C16 UNL     1       6.837  -0.917   0.558  1.00  0.00     0.030 C 
HETATM   12  C17 UNL     1       7.690   0.358   0.585  1.00  0.00     0.118 C 
HETATM   13  C18 UNL     1       6.717   1.535   0.631  1.00  0.00     0.028 C 
HETATM   14  C19 UNL     1       7.478   2.756   1.156  1.00  0.00     0.007 C 
HETATM   15  C20 UNL     1       8.921   2.662   0.600  1.00  0.00     0.057 C 
HETATM   16  C21 UNL     1       9.099   1.779  -0.641  1.00  0.00     0.195 C 
HETATM   17  O2  UNL     1       8.499   0.497  -0.540  1.00  0.00    -0.337 OA
HETATM   18  C22 UNL     1       8.662   2.438  -1.943  1.00  0.00     0.067 C 
HETATM   19  C23 UNL     1       9.599   1.790  -2.963  1.00  0.00     0.091 C 
HETATM   20  C24 UNL     1      10.833   1.523  -2.126  1.00  0.00     0.273 C 
HETATM   21  O3  UNL     1      10.475   1.518  -0.814  1.00  0.00    -0.281 OA
HETATM   22  O4  UNL     1      11.956   1.344  -2.542  1.00  0.00    -0.264 OA
HETATM   23  C25 UNL     1       9.844   2.653  -4.204  1.00  0.00     0.011 C 
HETATM   24  C26 UNL     1       6.799   4.080   0.771  1.00  0.00     0.000 C 
HETATM   25  C27 UNL     1       5.002  -0.336  -0.993  1.00  0.00     0.000 C 
HETATM   26  C28 UNL     1       5.630   0.845   2.799  1.00  0.00     0.000 C 
HETATM   27  C29 UNL     1       2.342  -1.026   2.789  1.00  0.00     0.000 A 
ENDROOT
BRANCH   1  28
HETATM   28  C2  UNL     1       0.305  -0.767   1.337  1.00  0.00     0.011 C 
BRANCH  28  29
HETATM   29  C1  UNL     1      -0.059  -0.061   0.018  1.00  0.00     0.096 C 
BRANCH  29  30
HETATM   30  C30 UNL     1      -1.547   0.002  -0.286  1.00  0.00     0.272 C 
HETATM   31  O6  UNL     1      -2.440  -0.302   0.472  1.00  0.00    -0.264 OA
BRANCH  30  32
HETATM   32  O5  UNL     1      -1.738   0.477  -1.549  1.00  0.00    -0.299 OA
HETATM   33  C31 UNL     1      -3.074   0.616  -1.972  1.00  0.00     0.184 C 
ENDBRANCH  30  32
ENDBRANCH  29  30
ENDBRANCH  28  29
ENDBRANCH   1  28
BRANCH   2  34
HETATM   34  C5  UNL     1       1.166  -3.407  -0.264  1.00  0.00     0.127 C 
HETATM   35  O1  UNL     1      -0.189  -3.034  -0.305  1.00  0.00    -0.226 OA
HETATM   36  C6  UNL     1       1.834  -2.799  -1.502  1.00  0.00     0.033 C 
HETATM   37  C7  UNL     1       1.138  -4.937  -0.429  1.00  0.00     0.033 C 
ENDBRANCH   2  34
TORSDOF 5
