REMARK  1 active torsions:
REMARK  status: ('A' for Active; 'I' for Inactive)
REMARK    1  A    between atoms: C14_18  and  C15_19 
ROOT
HETATM    1  C1  UNL     1       2.455   0.675   0.272  1.00  0.00     0.126 A 
HETATM    2  C2  UNL     1       2.737  -0.609   0.025  1.00  0.00     0.127 A 
HETATM    3  C3  UNL     1       4.061  -0.633  -0.147  1.00  0.00     0.082 A 
HETATM    4  C4  UNL     1       4.453   0.630   0.035  1.00  0.00     0.103 A 
HETATM    5  O1  UNL     1       3.489   1.355   0.296  1.00  0.00    -0.305 OA
HETATM    6  C5  UNL     1       5.726   1.045  -0.043  1.00  0.00     0.036 A 
HETATM    7  C6  UNL     1       6.700   0.144  -0.341  1.00  0.00     0.177 A 
HETATM    8  C7  UNL     1       6.348  -1.327  -0.614  1.00  0.00     0.111 A 
HETATM    9  C8  UNL     1       4.867  -1.673  -0.442  1.00  0.00     0.183 A 
HETATM   10  O2  UNL     1       4.446  -2.800  -0.583  1.00  0.00    -0.291 OA
HETATM   11  C9  UNL     1       7.168  -2.216   0.340  1.00  0.00     0.015 C 
HETATM   12  C10 UNL     1       6.723  -1.634  -2.078  1.00  0.00     0.015 C 
HETATM   13  O3  UNL     1       7.859   0.494  -0.410  1.00  0.00    -0.291 OA
HETATM   14  C11 UNL     1       6.101   2.490   0.198  1.00  0.00     0.036 C 
HETATM   15  O4  UNL     1       1.833  -1.602  -0.047  1.00  0.00    -0.305 OA
HETATM   16  C12 UNL     1       0.552  -1.173   0.166  1.00  0.00     0.100 A 
HETATM   17  C13 UNL     1       0.212   0.126   0.407  1.00  0.00     0.028 A 
HETATM   18  C14 UNL     1       1.178   1.092   0.452  1.00  0.00     0.061 A 
HETATM   19  C17 UNL     1      -1.110   0.336   0.583  1.00  0.00     0.002 A 
HETATM   20  C18 UNL     1      -2.049  -0.622   0.533  1.00  0.00     0.000 A 
HETATM   21  C19 UNL     1      -1.691  -1.886   0.295  1.00  0.00     0.002 A 
HETATM   22  C20 UNL     1      -0.390  -2.136   0.117  1.00  0.00     0.025 A 
ENDROOT
BRANCH  18  23
HETATM   23  C15 UNL     1       1.007   2.441   0.653  1.00  0.00     0.175 C 
HETATM   24  C16 UNL     1      -0.287   3.211   0.881  1.00  0.00     0.077 C 
HETATM   25  O5  UNL     1       1.952   3.202   0.636  1.00  0.00    -0.291 OA
ENDBRANCH  18  23
TORSDOF 1
