REMARK  2 active torsions:
REMARK  status: ('A' for Active; 'I' for Inactive)
REMARK    1  A    between atoms: C8_9  and  C12_14 
REMARK    2  A    between atoms: C30_36  and  C34_40 
ROOT
HETATM    1  C12 UNL     1       9.673   2.147   0.850  1.00  0.00     0.002 C 
HETATM    2  C13 UNL     1       8.480   1.515   0.740  1.00  0.00     0.075 C 
HETATM    3  C14 UNL     1       8.379   0.152   0.786  1.00  0.00     0.002 C 
HETATM    4  C15 UNL     1       9.448  -0.562   1.165  1.00  0.00    -0.002 C 
HETATM    5  C16 UNL     1      10.626   0.043   1.347  1.00  0.00    -0.001 C 
HETATM    6  C17 UNL     1      10.729   1.365   1.151  1.00  0.00    -0.002 C 
HETATM    7  C18 UNL     1       7.064  -0.616   0.445  1.00  0.00     0.076 C 
HETATM    8  C19 UNL     1       6.192   0.336  -0.408  1.00  0.00     0.076 C 
HETATM    9  C20 UNL     1       6.086   1.458   0.666  1.00  0.00     0.101 C 
HETATM   10  N3  UNL     1       7.386   2.176   0.602  1.00  0.00    -0.239 NA
HETATM   11  N4  UNL     1       5.058   1.317   1.703  1.00  0.00    -0.239 NA
HETATM   12  C21 UNL     1       3.792   1.973   1.459  1.00  0.00     0.095 C 
HETATM   13  C22 UNL     1       4.953  -0.121   2.043  1.00  0.00     0.079 C 
HETATM   14  C23 UNL     1       6.258  -0.964   1.761  1.00  0.00     0.029 C 
HETATM   15  C24 UNL     1       4.877  -0.413  -0.784  1.00  0.00     0.002 C 
HETATM   16  C25 UNL     1       4.747  -1.775  -0.755  1.00  0.00     0.075 C 
HETATM   17  N5  UNL     1       5.837  -2.430  -0.579  1.00  0.00    -0.239 NA
HETATM   18  C26 UNL     1       7.153  -1.739  -0.627  1.00  0.00     0.101 C 
HETATM   19  N6  UNL     1       8.185  -1.611  -1.664  1.00  0.00    -0.239 NA
HETATM   20  C27 UNL     1       9.445  -2.279  -1.423  1.00  0.00     0.095 C 
HETATM   21  C28 UNL     1       8.298  -0.176  -2.017  1.00  0.00     0.079 C 
HETATM   22  C29 UNL     1       7.002   0.680  -1.726  1.00  0.00     0.029 C 
HETATM   23  C30 UNL     1       3.556  -2.401  -0.936  1.00  0.00     0.002 C 
HETATM   24  C31 UNL     1       2.545  -1.571  -1.285  1.00  0.00    -0.002 C 
HETATM   25  C32 UNL     1       2.671  -0.247  -1.444  1.00  0.00    -0.001 C 
HETATM   26  C33 UNL     1       3.844   0.336  -1.192  1.00  0.00    -0.002 C 
ENDROOT
BRANCH   1  27
HETATM   27  C8  UNL     1       9.858   3.670   0.726  1.00  0.00     0.094 C 
HETATM   28  C1  UNL     1      11.255   4.118   0.305  1.00  0.00     0.002 A 
HETATM   29  C2  UNL     1      12.387   4.098   1.029  1.00  0.00    -0.002 A 
HETATM   30  C6  UNL     1      11.308   4.602  -0.943  1.00  0.00     0.075 A 
HETATM   31  C3  UNL     1      13.544   4.485   0.466  1.00  0.00    -0.000 A 
HETATM   32  C4  UNL     1      13.581   4.907  -0.810  1.00  0.00     0.002 A 
HETATM   33  C5  UNL     1      12.450   4.980  -1.528  1.00  0.00     0.018 A 
HETATM   34  N1  UNL     1      10.148   4.647  -1.442  1.00  0.00    -0.241 NA
HETATM   35  C7  UNL     1       9.086   4.289  -0.479  1.00  0.00     0.329 C 
HETATM   36  N2  UNL     1       8.449   5.490   0.039  1.00  0.00     0.160 N 
HETATM   37  C10 UNL     1       8.182   5.279   1.450  1.00  0.00     0.254 C 
HETATM   38  C11 UNL     1       7.273   5.890  -0.709  1.00  0.00     0.288 C 
HETATM   39  C9  UNL     1       9.366   4.446   1.962  1.00  0.00     0.048 C 
ENDBRANCH   1  27
BRANCH  23  40
HETATM   40  C34 UNL     1       3.266  -3.937  -0.848  1.00  0.00     0.094 C 
HETATM   41  C35 UNL     1       1.761  -4.142  -0.913  1.00  0.00     0.002 A 
HETATM   42  C36 UNL     1       1.007  -4.296  -2.010  1.00  0.00    -0.002 A 
HETATM   43  C40 UNL     1       1.192  -3.962   0.296  1.00  0.00     0.075 A 
HETATM   44  C37 UNL     1      -0.329  -4.245  -1.874  1.00  0.00    -0.000 A 
HETATM   45  C38 UNL     1      -0.891  -4.006  -0.675  1.00  0.00     0.002 A 
HETATM   46  C39 UNL     1      -0.135  -3.853   0.427  1.00  0.00     0.018 A 
HETATM   47  N7  UNL     1       2.093  -3.923   1.193  1.00  0.00    -0.241 NA
HETATM   48  C41 UNL     1       3.284  -4.524   0.580  1.00  0.00     0.329 C 
HETATM   49  N8  UNL     1       4.671  -4.559   0.933  1.00  0.00     0.160 N 
HETATM   50  C42 UNL     1       5.166  -5.359  -0.201  1.00  0.00     0.254 C 
HETATM   51  C44 UNL     1       4.960  -5.124   2.231  1.00  0.00     0.288 C 
HETATM   52  C43 UNL     1       4.314  -4.901  -1.432  1.00  0.00     0.048 C 
ENDBRANCH  23  40
TORSDOF 2
