REMARK  2 active torsions:
REMARK  status: ('A' for Active; 'I' for Inactive)
REMARK    1  A    between atoms: C1_1  and  C2_2 
REMARK    2  A    between atoms: C1_1  and  C14_16 
ROOT
HETATM    1  C2  UNL     1       1.381   0.290   0.147  1.00  0.00    -0.008 A 
HETATM    2  C3  UNL     1       2.516   1.043   0.142  1.00  0.00    -0.020 A 
HETATM    3  C4  UNL     1       3.706   0.414   0.135  1.00  0.00     0.029 A 
HETATM    4  C5  UNL     1       3.792  -0.916   0.140  1.00  0.00     0.006 A 
HETATM    5  C6  UNL     1       2.692  -1.677   0.147  1.00  0.00     0.123 A 
HETATM    6  C7  UNL     1       1.484  -1.066   0.148  1.00  0.00     0.003 A 
HETATM    7  C8  UNL     1       0.282  -1.991   0.149  1.00  0.00     0.033 C 
HETATM    8  O1  UNL     1       2.836  -3.031   0.148  1.00  0.00    -0.191 OA
HETATM    9  C9  UNL     1       5.202  -1.437   0.129  1.00  0.00     0.036 A 
HETATM   10  C10 UNL     1       6.000  -0.122   0.110  1.00  0.00     0.066 A 
HETATM   11  C11 UNL     1       4.941   0.979   0.122  1.00  0.00     0.172 A 
HETATM   12  O2  UNL     1       5.240   2.149   0.109  1.00  0.00    -0.291 OA
HETATM   13  C12 UNL     1       6.934  -0.012  -1.101  1.00  0.00     0.009 C 
HETATM   14  C13 UNL     1       2.510   2.566   0.142  1.00  0.00     0.031 C 
ENDROOT
BRANCH   1  15
HETATM   15  C1  UNL     1       0.060   1.066   0.148  1.00  0.00     0.009 C 
BRANCH  15  16
HETATM   16  C14 UNL     1      -1.337   0.451   0.144  1.00  0.00     0.209 C 
HETATM   17  O3  UNL     1      -2.295   1.495   0.138  1.00  0.00    -0.215 OA
ENDBRANCH  15  16
ENDBRANCH   1  15
TORSDOF 2
