REMARK  3 active torsions:
REMARK  status: ('A' for Active; 'I' for Inactive)
REMARK    1  A    between atoms: C1_1  and  C2_2 
REMARK    2  A    between atoms: C1_1  and  C14_15 
REMARK    3  A    between atoms: C14_15  and  O2_16 
ROOT
HETATM    1  C2  UNL     1       2.652   0.138   0.142  1.00  0.00    -0.010 A 
HETATM    2  C3  UNL     1       3.771   0.917   0.130  1.00  0.00    -0.020 A 
HETATM    3  C4  UNL     1       4.981   0.323   0.124  1.00  0.00     0.027 A 
HETATM    4  C5  UNL     1       5.110  -1.005   0.136  1.00  0.00    -0.020 A 
HETATM    5  C6  UNL     1       4.017  -1.768   0.150  1.00  0.00    -0.009 A 
HETATM    6  C7  UNL     1       2.789  -1.215   0.151  1.00  0.00    -0.023 A 
HETATM    7  C8  UNL     1       1.648  -2.212   0.160  1.00  0.00     0.031 C 
HETATM    8  C9  UNL     1       6.525  -1.502   0.124  1.00  0.00     0.034 A 
HETATM    9  C10 UNL     1       7.287  -0.165   0.101  1.00  0.00     0.066 A 
HETATM   10  C11 UNL     1       6.203   0.913   0.104  1.00  0.00     0.172 A 
HETATM   11  O1  UNL     1       6.472   2.091   0.082  1.00  0.00    -0.291 OA
HETATM   12  C12 UNL     1       8.225  -0.040  -1.106  1.00  0.00     0.009 C 
HETATM   13  C13 UNL     1       3.724   2.439   0.121  1.00  0.00     0.031 C 
ENDROOT
BRANCH   1  14
HETATM   14  C1  UNL     1       1.308   0.873   0.142  1.00  0.00     0.005 C 
BRANCH  14  15
HETATM   15  C14 UNL     1      -0.059   0.191   0.139  1.00  0.00     0.169 C 
BRANCH  15  16
HETATM   16  O2  UNL     1      -1.062   1.183   0.134  1.00  0.00    -0.347 OA
HETATM   17  C15 UNL     1      -2.360   0.626   0.132  1.00  0.00     0.175 C 
ENDBRANCH  15  16
ENDBRANCH  14  15
ENDBRANCH   1  14
TORSDOF 3
