REMARK  5 active torsions:
REMARK  status: ('A' for Active; 'I' for Inactive)
REMARK    1  A    between atoms: O1_1  and  C1_2 
REMARK    2  A    between atoms: O1_1  and  C7_13 
REMARK    3  A    between atoms: C2_4  and  C6_11 
REMARK    4  A    between atoms: C7_13  and  C8_14 
REMARK    5  A    between atoms: C8_14  and  C9_15 
ROOT
HETATM    1  C9  UNL     1       5.482  -0.720   0.169  1.00  0.00    -0.008 A 
HETATM    2  C10 UNL     1       6.553   0.123   0.175  1.00  0.00    -0.020 A 
HETATM    3  C11 UNL     1       7.787  -0.406   0.090  1.00  0.00     0.029 A 
HETATM    4  C12 UNL     1       7.979  -1.723  -0.000  1.00  0.00     0.006 A 
HETATM    5  C13 UNL     1       6.942  -2.569  -0.017  1.00  0.00     0.123 A 
HETATM    6  C14 UNL     1       5.691  -2.060   0.064  1.00  0.00     0.003 A 
HETATM    7  C15 UNL     1       4.568  -3.079   0.027  1.00  0.00     0.033 C 
HETATM    8  O7  UNL     1       7.192  -3.905  -0.111  1.00  0.00    -0.191 OA
HETATM    9  C16 UNL     1       9.424  -2.125  -0.092  1.00  0.00     0.036 A 
HETATM   10  C17 UNL     1      10.116  -0.754   0.000  1.00  0.00     0.066 A 
HETATM   11  C18 UNL     1       8.973   0.256   0.083  1.00  0.00     0.172 A 
HETATM   12  O8  UNL     1       9.177   1.445   0.135  1.00  0.00    -0.291 OA
HETATM   13  C19 UNL     1      11.064  -0.480  -1.172  1.00  0.00     0.009 C 
HETATM   14  C20 UNL     1       6.427   1.636   0.284  1.00  0.00     0.031 C 
ENDROOT
BRANCH   1  15
HETATM   15  C8  UNL     1       4.107  -0.056   0.306  1.00  0.00     0.005 C 
BRANCH  15  16
HETATM   16  C7  UNL     1       2.755  -0.771   0.308  1.00  0.00     0.171 C 
BRANCH  16  17
HETATM   17  O1  UNL     1       1.765   0.175   0.643  1.00  0.00    -0.324 OA
BRANCH  17  18
HETATM   18  C1  UNL     1       0.447  -0.283   0.452  1.00  0.00     0.270 C 
HETATM   19  O2  UNL     1       0.075  -0.046  -0.889  1.00  0.00    -0.326 OA
HETATM   20  C2  UNL     1      -0.150   1.291  -1.252  1.00  0.00     0.184 C 
HETATM   21  C3  UNL     1      -1.110   1.999  -0.304  1.00  0.00     0.215 C 
HETATM   22  C4  UNL     1      -0.758   1.819   1.160  1.00  0.00     0.220 C 
HETATM   23  O5  UNL     1      -2.411   1.488  -0.504  1.00  0.00    -0.218 OA
HETATM   24  C5  UNL     1      -0.507   0.351   1.442  1.00  0.00     0.241 C 
HETATM   25  O4  UNL     1       0.380   2.575   1.494  1.00  0.00    -0.218 OA
HETATM   26  O3  UNL     1      -1.735  -0.338   1.375  1.00  0.00    -0.215 OA
BRANCH  20  27
HETATM   27  C6  UNL     1       1.141   2.045  -1.549  1.00  0.00     0.214 C 
HETATM   28  O6  UNL     1       0.862   3.188  -2.334  1.00  0.00    -0.218 OA
ENDBRANCH  20  27
ENDBRANCH  17  18
ENDBRANCH  16  17
ENDBRANCH  15  16
ENDBRANCH   1  15
TORSDOF 5
