REMARK  3 active torsions:
REMARK  status: ('A' for Active; 'I' for Inactive)
REMARK    1  A    between atoms: C1_1  and  C2_2 
REMARK    2  A    between atoms: C1_1  and  C15_18 
REMARK    3  A    between atoms: C3_3  and  C14_16 
ROOT
HETATM    1  C2  UNL     1       1.464   0.212   0.071  1.00  0.00    -0.007 A 
HETATM    2  C3  UNL     1       2.608   0.938  -0.083  1.00  0.00     0.013 A 
HETATM    3  C4  UNL     1       3.788   0.287  -0.115  1.00  0.00     0.032 A 
HETATM    4  C5  UNL     1       3.864  -1.038   0.008  1.00  0.00     0.010 A 
HETATM    5  C6  UNL     1       2.748  -1.745   0.191  1.00  0.00    -0.006 A 
HETATM    6  C7  UNL     1       1.549  -1.136   0.233  1.00  0.00    -0.022 A 
HETATM    7  C8  UNL     1       0.373  -2.058   0.484  1.00  0.00     0.031 C 
HETATM    8  C9  UNL     1       5.253  -1.597  -0.079  1.00  0.00     0.181 A 
HETATM    9  C10 UNL     1       6.085  -0.309  -0.191  1.00  0.00     0.087 A 
HETATM   10  C11 UNL     1       5.033   0.805  -0.265  1.00  0.00     0.174 A 
HETATM   11  O1  UNL     1       5.334   1.966  -0.407  1.00  0.00    -0.291 OA
HETATM   12  C12 UNL     1       6.997  -0.242  -1.427  1.00  0.00     0.011 C 
HETATM   13  C13 UNL     1       6.921  -0.092   1.085  1.00  0.00     0.011 C 
HETATM   14  O2  UNL     1       5.376  -2.421  -1.223  1.00  0.00    -0.218 OA
ENDROOT
BRANCH   1  15
HETATM   15  C1  UNL     1       0.142   0.986   0.051  1.00  0.00     0.009 C 
BRANCH  15  16
HETATM   16  C15 UNL     1      -1.239   0.344  -0.040  1.00  0.00     0.209 C 
HETATM   17  O4  UNL     1      -2.212   1.363  -0.191  1.00  0.00    -0.215 OA
ENDBRANCH  15  16
ENDBRANCH   1  15
BRANCH   2  18
HETATM   18  C14 UNL     1       2.609   2.457  -0.208  1.00  0.00     0.209 C 
HETATM   19  O3  UNL     1       3.338   3.036   0.868  1.00  0.00    -0.215 OA
ENDBRANCH   2  18
TORSDOF 3
