REMARK  0 active torsions:
REMARK  status: ('A' for Active; 'I' for Inactive)
ROOT
HETATM    1  C1  UNL     1      -2.163   0.694   0.797  1.00  0.00     0.152 C 
HETATM    2  C2  UNL     1      -2.272  -0.813   0.604  1.00  0.00     0.033 C 
HETATM    3  C3  UNL     1      -1.542  -1.326  -0.660  1.00  0.00     0.002 C 
HETATM    4  C4  UNL     1      -0.094  -0.749  -0.677  1.00  0.00     0.000 C 
HETATM    5  C5  UNL     1       0.108   0.778  -0.440  1.00  0.00     0.003 C 
HETATM    6  C6  UNL     1      -0.704   1.147   0.827  1.00  0.00     0.033 C 
HETATM    7  C7  UNL     1       1.641   1.135  -0.313  1.00  0.00     0.005 C 
HETATM    8  C8  UNL     1       2.616  -0.074  -0.367  1.00  0.00     0.060 C 
HETATM    9  C9  UNL     1       2.285  -0.947  -1.594  1.00  0.00     0.005 C 
HETATM   10  C10 UNL     1       0.798  -1.265  -1.813  1.00  0.00     0.000 C 
HETATM   11  C11 UNL     1       4.057   0.469  -0.518  1.00  0.00     0.158 C 
HETATM   12  C12 UNL     1       4.330   1.081   0.849  1.00  0.00     0.051 C 
HETATM   13  C13 UNL     1       3.514   2.377   0.967  1.00  0.00     0.007 C 
HETATM   14  C14 UNL     1       2.005   2.112   0.830  1.00  0.00     0.001 C 
HETATM   15  C15 UNL     1       3.785  -0.008   1.735  1.00  0.00    -0.012 C 
HETATM   16  C16 UNL     1       2.686  -0.750   1.018  1.00  0.00     0.173 C 
HETATM   17  O1  UNL     1       3.014  -2.123   0.934  1.00  0.00    -0.219 OA
HETATM   18  C17 UNL     1       4.203  -0.280   2.977  1.00  0.00    -0.007 C 
HETATM   19  O2  UNL     1       4.984  -0.568  -0.746  1.00  0.00    -0.223 OA
HETATM   20  C18 UNL     1      -0.417   1.659  -1.604  1.00  0.00     0.000 C 
HETATM   21  C19 UNL     1      -1.509  -2.876  -0.541  1.00  0.00     0.000 C 
HETATM   22  C20 UNL     1      -2.375  -1.029  -1.924  1.00  0.00     0.000 C 
HETATM   23  O3  UNL     1      -2.767   1.041   2.023  1.00  0.00    -0.224 OA
ENDROOT
TORSDOF 0
