REMARK  10 active torsions:
REMARK  status: ('A' for Active; 'I' for Inactive)
REMARK    1  A    between atoms: C1_1  and  O8_36 
REMARK    2  A    between atoms: C3_3  and  O1_7 
REMARK    3  A    between atoms: O1_7  and  C7_8 
REMARK    4  A    between atoms: C12_14  and  O6_30 
REMARK    5  A    between atoms: C14_16  and  O4_26 
REMARK    6  A    between atoms: O4_26  and  C23_27 
REMARK    7  A    between atoms: O6_30  and  C25_31 
REMARK    8  A    between atoms: C25_31  and  C26_32 
REMARK    9  A    between atoms: C26_32  and  C27_33 
REMARK   10  A    between atoms: O8_36  and  C29_37 
ROOT
HETATM    1  C1  UNL     1      -0.292   1.284  -0.895  1.00  0.00     0.173 C 
HETATM    2  C2  UNL     1      -0.094  -0.121  -0.255  1.00  0.00     0.014 C 
HETATM    3  C3  UNL     1      -1.123  -0.365   0.865  1.00  0.00     0.145 C 
HETATM    4  C4  UNL     1      -2.022   0.882   0.860  1.00  0.00     0.035 C 
HETATM    5  C5  UNL     1      -1.777   1.503  -0.529  1.00  0.00     0.042 C 
HETATM    6  C6  UNL     1      -1.805   1.887   2.002  1.00  0.00     0.003 C 
HETATM    7  C9  UNL     1       1.330  -0.585  -0.053  1.00  0.00    -0.010 C 
HETATM    8  C10 UNL     1       2.302  -0.117   0.756  1.00  0.00    -0.017 C 
HETATM    9  C11 UNL     1       2.131   0.942   1.822  1.00  0.00     0.029 C 
HETATM   10  C12 UNL     1       3.719  -0.667   0.611  1.00  0.00     0.145 C 
HETATM   11  C13 UNL     1       4.776   0.414   0.294  1.00  0.00     0.065 C 
HETATM   12  C14 UNL     1       5.501   0.423  -1.068  1.00  0.00     0.127 C 
HETATM   13  C15 UNL     1       4.937   1.260  -2.255  1.00  0.00     0.030 C 
HETATM   14  C16 UNL     1       3.704   0.660  -2.985  1.00  0.00     0.028 C 
HETATM   15  C17 UNL     1       2.344   0.933  -2.391  1.00  0.00    -0.027 C 
HETATM   16  C18 UNL     1       1.165   0.971  -3.045  1.00  0.00     0.011 C 
HETATM   17  C19 UNL     1      -0.035   1.174  -2.421  1.00  0.00     0.197 C 
HETATM   18  O3  UNL     1      -1.026   1.246  -3.116  1.00  0.00    -0.289 OA
HETATM   19  C20 UNL     1       1.093   0.774  -4.551  1.00  0.00     0.034 C 
HETATM   20  C21 UNL     1       6.073   1.338  -3.322  1.00  0.00     0.003 C 
HETATM   21  C22 UNL     1       4.651   2.723  -1.843  1.00  0.00     0.003 C 
ENDROOT
BRANCH  10  22
HETATM   22  O6  UNL     1       4.082  -1.332   1.802  1.00  0.00    -0.300 OA
BRANCH  22  23
HETATM   23  C25 UNL     1       3.444  -2.499   2.091  1.00  0.00     0.272 C 
HETATM   24  O7  UNL     1       2.687  -3.074   1.341  1.00  0.00    -0.264 OA
BRANCH  23  25
HETATM   25  C26 UNL     1       3.788  -2.945   3.502  1.00  0.00     0.096 C 
BRANCH  25  26
HETATM   26  C27 UNL     1       3.249  -4.339   3.853  1.00  0.00     0.010 C 
HETATM   27  C28 UNL     1       3.592  -4.731   5.296  1.00  0.00     0.001 C 
ENDBRANCH  25  26
ENDBRANCH  23  25
ENDBRANCH  22  23
ENDBRANCH  10  22
BRANCH  12  28
HETATM   28  O4  UNL     1       5.778  -0.885  -1.482  1.00  0.00    -0.304 OA
BRANCH  28  29
HETATM   29  C23 UNL     1       6.971  -1.524  -1.306  1.00  0.00     0.272 C 
HETATM   30  O5  UNL     1       7.149  -2.658  -1.698  1.00  0.00    -0.264 OA
HETATM   31  C24 UNL     1       8.076  -0.767  -0.590  1.00  0.00     0.106 C 
ENDBRANCH  28  29
ENDBRANCH  12  28
BRANCH   1  32
HETATM   32  O8  UNL     1       0.529   2.215  -0.252  1.00  0.00    -0.295 OA
BRANCH  32  33
HETATM   33  C29 UNL     1       0.455   3.574  -0.314  1.00  0.00     0.273 C 
HETATM   34  O9  UNL     1       1.117   4.272   0.425  1.00  0.00    -0.264 OA
HETATM   35  C30 UNL     1      -0.380   4.211  -1.409  1.00  0.00     0.106 C 
ENDBRANCH  32  33
ENDBRANCH   1  32
BRANCH   3  36
HETATM   36  O1  UNL     1      -0.562  -0.589   2.120  1.00  0.00    -0.300 OA
BRANCH  36  37
HETATM   37  C7  UNL     1      -0.139  -1.812   2.554  1.00  0.00     0.273 C 
HETATM   38  O2  UNL     1       0.425  -1.948   3.620  1.00  0.00    -0.264 OA
HETATM   39  C8  UNL     1      -0.445  -3.002   1.662  1.00  0.00     0.106 C 
ENDBRANCH  36  37
ENDBRANCH   3  36
TORSDOF 10
