REMARK  5 active torsions:
REMARK  status: ('A' for Active; 'I' for Inactive)
REMARK    1  A    between atoms: C3_3  and  C23_25 
REMARK    2  A    between atoms: C12_12  and  C16_16 
REMARK    3  A    between atoms: C23_25  and  O3_26 
REMARK    4  A    between atoms: O3_26  and  C24_27 
REMARK    5  A    between atoms: C25_29  and  C29_36 
ROOT
HETATM    1  C1  UNL     1       0.388   0.961   3.563  1.00  0.00     0.151 C 
HETATM    2  C2  UNL     1       1.097  -0.374   3.538  1.00  0.00     0.067 C 
HETATM    3  C3  UNL     1       1.066  -1.027   2.133  1.00  0.00     0.035 C 
HETATM    4  C4  UNL     1      -0.406  -1.022   1.593  1.00  0.00     0.004 C 
HETATM    5  C5  UNL     1      -1.273   0.278   1.750  1.00  0.00     0.011 C 
HETATM    6  C6  UNL     1      -1.066   0.875   3.163  1.00  0.00     0.065 C 
HETATM    7  C7  UNL     1      -1.087   1.299   0.574  1.00  0.00     0.018 C 
HETATM    8  C8  UNL     1      -0.122   0.831  -0.487  1.00  0.00    -0.049 C 
HETATM    9  C9  UNL     1      -0.315  -0.588  -0.965  1.00  0.00     0.022 C 
HETATM   10  C10 UNL     1      -0.592  -1.582   0.170  1.00  0.00     0.004 C 
HETATM   11  C11 UNL     1       0.759   1.642  -1.099  1.00  0.00    -0.033 C 
HETATM   12  C12 UNL     1       0.923   3.127  -0.838  1.00  0.00     0.046 C 
HETATM   13  C13 UNL     1      -0.405   3.627  -0.225  1.00  0.00     0.007 C 
HETATM   14  C14 UNL     1      -0.850   2.767   0.968  1.00  0.00     0.004 C 
HETATM   15  C15 UNL     1       2.102   3.385   0.126  1.00  0.00     0.007 C 
HETATM   16  C21 UNL     1      -2.785  -0.112   1.742  1.00  0.00     0.001 C 
HETATM   17  C22 UNL     1       2.061  -0.239   1.260  1.00  0.00     0.003 C 
HETATM   18  O9  UNL     1       0.916   1.981   3.941  1.00  0.00    -0.296 OA
ENDROOT
BRANCH   3  19
HETATM   19  C23 UNL     1       1.669  -2.443   2.349  1.00  0.00     0.145 C 
BRANCH  19  20
HETATM   20  O3  UNL     1       1.957  -3.116   1.147  1.00  0.00    -0.329 OA
BRANCH  20  21
HETATM   21  C24 UNL     1       2.890  -4.172   1.274  1.00  0.00     0.270 C 
HETATM   22  O4  UNL     1       3.974  -3.879   0.416  1.00  0.00    -0.326 OA
HETATM   23  C25 UNL     1       3.742  -4.037  -0.961  1.00  0.00     0.184 C 
HETATM   24  C26 UNL     1       3.136  -5.393  -1.301  1.00  0.00     0.215 C 
HETATM   25  C27 UNL     1       1.934  -5.742  -0.443  1.00  0.00     0.220 C 
HETATM   26  O7  UNL     1       4.123  -6.379  -1.093  1.00  0.00    -0.218 OA
HETATM   27  C28 UNL     1       2.273  -5.527   1.015  1.00  0.00     0.241 C 
HETATM   28  O6  UNL     1       0.826  -4.946  -0.787  1.00  0.00    -0.218 OA
HETATM   29  O5  UNL     1       3.176  -6.529   1.434  1.00  0.00    -0.215 OA
BRANCH  23  30
HETATM   30  C29 UNL     1       3.030  -2.841  -1.577  1.00  0.00     0.214 C 
HETATM   31  O8  UNL     1       3.118  -2.906  -2.987  1.00  0.00    -0.218 OA
ENDBRANCH  23  30
ENDBRANCH  20  21
ENDBRANCH  19  20
ENDBRANCH   3  19
BRANCH  12  32
HETATM   32  C16 UNL     1       1.171   3.849  -2.184  1.00  0.00     0.151 C 
HETATM   33  O1  UNL     1       1.198   5.235  -1.986  1.00  0.00    -0.334 OA
HETATM   34  C17 UNL     1       2.330   5.758  -2.630  1.00  0.00     0.188 C 
HETATM   35  O2  UNL     1       3.241   4.693  -2.662  1.00  0.00    -0.332 OA
HETATM   36  C19 UNL     1       1.983   6.237  -4.033  1.00  0.00     0.061 C 
HETATM   37  C20 UNL     1       2.913   6.891  -1.800  1.00  0.00     0.061 C 
HETATM   38  C18 UNL     1       2.480   3.543  -2.884  1.00  0.00     0.175 C 
ENDBRANCH  12  32
TORSDOF 5
