REMARK  14 active torsions:
REMARK  status: ('A' for Active; 'I' for Inactive)
REMARK    1  A    between atoms: C4_4  and  C11_15 
REMARK    2  A    between atoms: C5_5  and  N1_7 
REMARK       I    between atoms: N1_7  and  C7_8 
REMARK    3  A    between atoms: C7_8  and  C8_9 
REMARK    4  A    between atoms: C8_9  and  C9_10 
REMARK    5  A    between atoms: C9_10  and  C10_11 
REMARK    6  A    between atoms: C11_15  and  O5_17 
REMARK    7  A    between atoms: O5_17  and  C12_18 
REMARK    8  A    between atoms: C12_18  and  C13_19 
REMARK    9  A    between atoms: C16_22  and  O11_49 
REMARK   10  A    between atoms: C19_25  and  O10_47 
REMARK   11  A    between atoms: N2_28  and  C23_30 
REMARK   12  A    between atoms: C25_32  and  O8_44 
REMARK   13  A    between atoms: C30_37  and  O6_38 
REMARK   14  A    between atoms: C32_40  and  O7_42 
ROOT
HETATM    1  C13 UNL     1      -0.871  -0.342  -0.299  1.00  0.00     0.062 C 
HETATM    2  C14 UNL     1      -1.903   0.696  -0.849  1.00  0.00     0.007 C 
HETATM    3  C15 UNL     1      -1.315   2.098  -0.927  1.00  0.00     0.030 C 
HETATM    4  C16 UNL     1      -0.119   2.060  -1.870  1.00  0.00     0.117 C 
HETATM    5  C17 UNL     1       0.953   1.031  -1.412  1.00  0.00     0.060 C 
HETATM    6  C18 UNL     1       0.564   0.256  -0.120  1.00  0.00     0.038 C 
HETATM    7  C19 UNL     1       1.639  -0.856  -0.038  1.00  0.00     0.148 C 
HETATM    8  C20 UNL     1       2.248  -0.914  -1.461  1.00  0.00     0.203 C 
HETATM    9  C21 UNL     1       1.164  -0.213  -2.307  1.00  0.00     0.254 C 
HETATM   10  N2  UNL     1      -0.095  -0.930  -2.567  1.00  0.00     0.138 N 
HETATM   11  C22 UNL     1      -0.767  -1.446  -1.378  1.00  0.00     0.253 C 
HETATM   12  C25 UNL     1       3.671  -0.280  -1.618  1.00  0.00     0.127 C 
HETATM   13  C26 UNL     1       3.644   1.126  -0.981  1.00  0.00     0.055 C 
HETATM   14  C27 UNL     1       2.297   1.819  -1.335  1.00  0.00     0.009 C 
HETATM   15  C28 UNL     1       2.633   2.554  -2.664  1.00  0.00     0.005 C 
HETATM   16  C29 UNL     1       4.133   2.340  -2.919  1.00  0.00     0.055 C 
HETATM   17  C30 UNL     1       4.628   2.193  -1.493  1.00  0.00     0.120 C 
HETATM   18  C32 UNL     1       4.439   1.100  -3.767  1.00  0.00     0.120 C 
HETATM   19  C33 UNL     1       4.123  -0.253  -3.100  1.00  0.00     0.060 C 
HETATM   20  O9  UNL     1       2.382  -2.259  -1.836  1.00  0.00    -0.219 OA
ENDROOT
BRANCH   1  21
HETATM   21  C12 UNL     1      -1.532  -0.834   1.008  1.00  0.00     0.154 C 
BRANCH  21  22
HETATM   22  O5  UNL     1      -0.736  -1.596   1.873  1.00  0.00    -0.298 OA
BRANCH  22  23
HETATM   23  C11 UNL     1      -1.143  -2.853   2.218  1.00  0.00     0.297 C 
HETATM   24  O4  UNL     1      -1.663  -3.506   1.335  1.00  0.00    -0.259 OA
BRANCH  23  25
HETATM   25  C4  UNL     1      -1.131  -3.374   3.492  1.00  0.00     0.081 A 
HETATM   26  C3  UNL     1      -1.631  -4.623   3.631  1.00  0.00     0.007 A 
HETATM   27  C2  UNL     1      -1.716  -5.249   4.813  1.00  0.00     0.000 A 
HETATM   28  C1  UNL     1      -1.290  -4.621   5.912  1.00  0.00     0.002 A 
HETATM   29  C6  UNL     1      -0.788  -3.384   5.796  1.00  0.00     0.019 A 
HETATM   30  C5  UNL     1      -0.694  -2.737   4.615  1.00  0.00     0.089 A 
BRANCH  30  31
HETATM   31  N1  UNL     1      -0.169  -1.491   4.610  1.00  0.00    -0.212 NA
HETATM   32  C7  UNL     1       0.171  -0.598   5.592  1.00  0.00     0.256 C 
HETATM   33  O3  UNL     1      -0.016  -0.762   6.773  1.00  0.00    -0.270 OA
BRANCH  32  34
HETATM   34  C8  UNL     1       0.809   0.676   5.062  1.00  0.00     0.101 C 
BRANCH  34  35
HETATM   35  C9  UNL     1       0.949   1.821   6.075  1.00  0.00     0.107 C 
BRANCH  35  36
HETATM   36  C10 UNL     1       1.621   3.035   5.459  1.00  0.00     0.186 C 
HETATM   37  O1  UNL     1       1.831   4.005   6.367  1.00  0.00    -0.647 OA
HETATM   38  O2  UNL     1       1.952   3.168   4.305  1.00  0.00    -0.647 OA
ENDBRANCH  35  36
ENDBRANCH  34  35
ENDBRANCH  32  34
ENDBRANCH  30  31
ENDBRANCH  23  25
ENDBRANCH  22  23
ENDBRANCH  21  22
ENDBRANCH   1  21
BRANCH   7  39
HETATM   39  O10 UNL     1       2.596  -0.621   0.953  1.00  0.00    -0.351 OA
HETATM   40  C36 UNL     1       2.200  -0.967   2.256  1.00  0.00     0.174 C 
ENDBRANCH   7  39
BRANCH  10  41
HETATM   41  C23 UNL     1       0.024  -1.939  -3.615  1.00  0.00     0.250 C 
HETATM   42  C24 UNL     1      -1.332  -2.405  -4.171  1.00  0.00     0.037 C 
ENDBRANCH  10  41
BRANCH   4  43
HETATM   43  O11 UNL     1      -0.492   1.810  -3.200  1.00  0.00    -0.354 OA
HETATM   44  C37 UNL     1      -1.081   2.908  -3.863  1.00  0.00     0.174 C 
ENDBRANCH   4  43
BRANCH  12  45
HETATM   45  O8  UNL     1       4.457  -1.234  -0.939  1.00  0.00    -0.354 OA
HETATM   46  C35 UNL     1       5.794  -0.940  -0.628  1.00  0.00     0.174 C 
ENDBRANCH  12  45
BRANCH  17  47
HETATM   47  O6  UNL     1       5.981   1.870  -1.436  1.00  0.00    -0.354 OA
HETATM   48  C31 UNL     1       6.608   2.353  -0.266  1.00  0.00     0.174 C 
ENDBRANCH  17  47
BRANCH  18  49
HETATM   49  O7  UNL     1       5.796   1.165  -4.136  1.00  0.00    -0.354 OA
HETATM   50  C34 UNL     1       6.082   0.513  -5.356  1.00  0.00     0.174 C 
ENDBRANCH  18  49
TORSDOF 14
