REMARK  1 active torsions:
REMARK  status: ('A' for Active; 'I' for Inactive)
REMARK    1  A    between atoms: C4_4  and  C6_8 
ROOT
HETATM    1  C1  UNL     1       1.185   0.316   0.201  1.00  0.00     0.099 A 
HETATM    2  C2  UNL     1      -0.004  -0.100  -0.281  1.00  0.00     0.024 A 
HETATM    3  C3  UNL     1      -0.954   0.809  -0.560  1.00  0.00     0.003 A 
HETATM    4  C4  UNL     1      -0.775   2.131  -0.388  1.00  0.00     0.041 A 
HETATM    5  C5  UNL     1       0.431   2.525   0.099  1.00  0.00     0.296 A 
HETATM    6  O1  UNL     1       1.425   1.646   0.415  1.00  0.00    -0.274 OA
HETATM    7  O2  UNL     1       0.648   3.708   0.262  1.00  0.00    -0.259 OA
HETATM    8  C9  UNL     1      -0.244  -1.407  -0.483  1.00  0.00     0.026 A 
HETATM    9  C10 UNL     1       0.718  -2.295  -0.208  1.00  0.00     0.099 A 
HETATM   10  C11 UNL     1       1.910  -1.899   0.265  1.00  0.00     0.007 A 
HETATM   11  C12 UNL     1       2.151  -0.592   0.482  1.00  0.00    -0.001 A 
HETATM   12  C13 UNL     1       3.475  -0.107   1.035  1.00  0.00     0.033 C 
HETATM   13  C14 UNL     1       2.810  -3.098   0.490  1.00  0.00     0.099 C 
HETATM   14  C15 UNL     1       1.739  -4.134   0.156  1.00  0.00     0.279 C 
HETATM   15  O3  UNL     1       0.583  -3.506  -0.356  1.00  0.00    -0.276 OA
HETATM   16  O4  UNL     1       1.819  -5.324   0.352  1.00  0.00    -0.264 OA
HETATM   17  C16 UNL     1       3.283  -3.288   1.935  1.00  0.00     0.014 C 
HETATM   18  C17 UNL     1       3.935  -3.243  -0.544  1.00  0.00     0.014 C 
ENDROOT
BRANCH   4  19
HETATM   19  C6  UNL     1      -1.883   3.112  -0.747  1.00  0.00     0.028 C 
HETATM   20  C7  UNL     1      -2.347   3.951   0.455  1.00  0.00     0.005 C 
HETATM   21  C8  UNL     1      -1.490   3.993  -1.945  1.00  0.00     0.005 C 
ENDBRANCH   4  19
TORSDOF 1
