REMARK  14 active torsions:
REMARK  status: ('A' for Active; 'I' for Inactive)
REMARK    1  A    between atoms: C1_1  and  C32_45 
REMARK    2  A    between atoms: C2_3  and  O13_29 
REMARK    3  A    between atoms: C3_4  and  O4_9 
REMARK    4  A    between atoms: O4_9  and  C6_10 
REMARK    5  A    between atoms: C10_15  and  O6_16 
REMARK    6  A    between atoms: O6_16  and  C11_17 
REMARK    7  A    between atoms: O13_29  and  C17_30 
REMARK    8  A    between atoms: C17_30  and  C18_31 
REMARK    9  A    between atoms: C20_33  and  C21_34 
REMARK   10  A    between atoms: C21_34  and  C22_35 
REMARK   11  A    between atoms: C22_35  and  C23_36 
REMARK   12  A    between atoms: C25_38  and  C26_39 
REMARK   13  A    between atoms: C26_39  and  C27_40 
REMARK   14  A    between atoms: C27_40  and  C28_41 
ROOT
HETATM    1  C1  UNL     1       4.849   0.292  -2.742  1.00  0.00     0.184 C 
HETATM    2  O1  UNL     1       6.209   0.424  -2.427  1.00  0.00    -0.326 OA
HETATM    3  C2  UNL     1       6.676  -0.292  -1.305  1.00  0.00     0.267 C 
HETATM    4  C3  UNL     1       6.392  -1.782  -1.427  1.00  0.00     0.207 C 
HETATM    5  C4  UNL     1       4.899  -2.015  -1.641  1.00  0.00     0.217 C 
HETATM    6  C5  UNL     1       4.390  -1.159  -2.787  1.00  0.00     0.215 C 
HETATM    7  O2  UNL     1       4.844  -1.731  -3.996  1.00  0.00    -0.218 OA
HETATM    8  O3  UNL     1       4.174  -1.739  -0.468  1.00  0.00    -0.218 OA
ENDROOT
BRANCH   4   9
HETATM    9  O4  UNL     1       7.032  -2.364  -2.532  1.00  0.00    -0.324 OA
BRANCH   9  10
HETATM   10  C6  UNL     1       8.442  -2.453  -2.498  1.00  0.00     0.267 C 
HETATM   11  O5  UNL     1       8.874  -1.899  -3.726  1.00  0.00    -0.329 OA
HETATM   12  C7  UNL     1       8.468  -2.615  -4.863  1.00  0.00     0.151 C 
HETATM   13  C8  UNL     1       8.923  -4.064  -4.787  1.00  0.00     0.212 C 
HETATM   14  C16 UNL     1       9.034  -1.900  -6.090  1.00  0.00     0.035 C 
HETATM   15  C9  UNL     1       8.448  -4.712  -3.500  1.00  0.00     0.217 C 
HETATM   16  O12 UNL     1       8.393  -4.807  -5.858  1.00  0.00    -0.218 OA
HETATM   17  C10 UNL     1       8.918  -3.884  -2.311  1.00  0.00     0.207 C 
HETATM   18  O11 UNL     1       8.971  -6.018  -3.446  1.00  0.00    -0.218 OA
BRANCH  17  19
HETATM   19  O6  UNL     1      10.313  -4.021  -2.247  1.00  0.00    -0.324 OA
BRANCH  19  20
HETATM   20  C11 UNL     1      11.005  -3.252  -1.290  1.00  0.00     0.270 C 
HETATM   21  O7  UNL     1      11.412  -2.052  -1.917  1.00  0.00    -0.326 OA
HETATM   22  C12 UNL     1      12.310  -2.230  -2.987  1.00  0.00     0.181 C 
HETATM   23  C13 UNL     1      13.555  -2.987  -2.563  1.00  0.00     0.215 C 
HETATM   24  C14 UNL     1      13.209  -4.290  -1.874  1.00  0.00     0.220 C 
HETATM   25  O10 UNL     1      14.342  -3.284  -3.694  1.00  0.00    -0.218 OA
HETATM   26  C15 UNL     1      12.194  -4.038  -0.776  1.00  0.00     0.241 C 
HETATM   27  O9  UNL     1      12.682  -5.185  -2.829  1.00  0.00    -0.218 OA
HETATM   28  O8  UNL     1      12.812  -3.320   0.268  1.00  0.00    -0.215 OA
ENDBRANCH  19  20
ENDBRANCH  17  19
ENDBRANCH   9  10
ENDBRANCH   4   9
BRANCH   3  29
HETATM   29  O13 UNL     1       6.071   0.228  -0.144  1.00  0.00    -0.325 OA
BRANCH  29  30
HETATM   30  C17 UNL     1       6.655   1.417   0.350  1.00  0.00     0.167 C 
BRANCH  30  31
HETATM   31  C18 UNL     1       5.768   2.128   1.357  1.00  0.00    -0.019 C 
HETATM   32  C19 UNL     1       6.344   3.430   1.861  1.00  0.00     0.029 C 
HETATM   33  C20 UNL     1       4.572   1.639   1.735  1.00  0.00    -0.032 C 
BRANCH  33  34
HETATM   34  C21 UNL     1       3.558   2.305   2.636  1.00  0.00     0.030 C 
BRANCH  34  35
HETATM   35  C22 UNL     1       2.123   1.995   2.170  1.00  0.00     0.026 C 
BRANCH  35  36
HETATM   36  C23 UNL     1       0.980   2.618   2.952  1.00  0.00    -0.048 C 
HETATM   37  C24 UNL     1      -0.388   2.253   2.419  1.00  0.00     0.026 C 
HETATM   38  C25 UNL     1       1.157   3.418   4.019  1.00  0.00    -0.034 C 
BRANCH  38  39
HETATM   39  C26 UNL     1       0.050   4.059   4.824  1.00  0.00     0.030 C 
BRANCH  39  40
HETATM   40  C27 UNL     1       0.590   5.003   5.911  1.00  0.00     0.026 C 
BRANCH  40  41
HETATM   41  C28 UNL     1      -0.418   5.705   6.806  1.00  0.00    -0.048 C 
HETATM   42  C29 UNL     1       0.239   6.605   7.829  1.00  0.00     0.026 C 
HETATM   43  C30 UNL     1      -1.748   5.533   6.692  1.00  0.00    -0.034 C 
HETATM   44  C31 UNL     1      -2.838   6.164   7.521  1.00  0.00     0.030 C 
ENDBRANCH  40  41
ENDBRANCH  39  40
ENDBRANCH  38  39
ENDBRANCH  35  36
ENDBRANCH  34  35
ENDBRANCH  33  34
ENDBRANCH  30  31
ENDBRANCH  29  30
ENDBRANCH   3  29
BRANCH   1  45
HETATM   45  C32 UNL     1       3.958   1.226  -1.931  1.00  0.00     0.214 C 
HETATM   46  O14 UNL     1       2.740   1.442  -2.616  1.00  0.00    -0.218 OA
ENDBRANCH   1  45
TORSDOF 14
