REMARK  25 active torsions:
REMARK  status: ('A' for Active; 'I' for Inactive)
REMARK    1  A    between atoms: C2_2  and  C22_28 
REMARK    2  A    between atoms: C3_4  and  C6_7 
REMARK    3  A    between atoms: C6_7  and  C7_8 
REMARK    4  A    between atoms: C7_8  and  C8_9 
REMARK    5  A    between atoms: C8_9  and  C9_10 
REMARK    6  A    between atoms: C9_10  and  C10_11 
REMARK    7  A    between atoms: C10_11  and  C11_12 
REMARK    8  A    between atoms: C11_12  and  C12_13 
REMARK    9  A    between atoms: C12_13  and  C13_14 
REMARK   10  A    between atoms: C13_14  and  C14_15 
REMARK   11  A    between atoms: C14_15  and  C15_16 
REMARK   12  A    between atoms: C15_16  and  C16_17 
REMARK   13  A    between atoms: C16_17  and  C17_18 
REMARK   14  A    between atoms: C22_28  and  C23_29 
REMARK   15  A    between atoms: C23_29  and  C24_30 
REMARK   16  A    between atoms: C24_30  and  C25_31 
REMARK   17  A    between atoms: C25_31  and  C26_32 
REMARK   18  A    between atoms: C26_32  and  C27_33 
REMARK   19  A    between atoms: C27_33  and  C28_34 
REMARK   20  A    between atoms: C28_34  and  C29_35 
REMARK   21  A    between atoms: C29_35  and  C30_36 
REMARK   22  A    between atoms: C30_36  and  C31_37 
REMARK   23  A    between atoms: C31_37  and  C32_38 
REMARK   24  A    between atoms: C32_38  and  C33_39 
REMARK   25  A    between atoms: C33_39  and  C34_40 
ROOT
HETATM    1  C1  UNL     1      -2.929  -0.234   3.191  1.00  0.00     0.179 C 
HETATM    2  C2  UNL     1      -1.777  -0.059   2.213  1.00  0.00     0.146 C 
HETATM    3  O1  UNL     1      -1.519   1.298   1.934  1.00  0.00    -0.354 OA
HETATM    4  C3  UNL     1      -2.604   2.113   1.570  1.00  0.00     0.146 C 
HETATM    5  C4  UNL     1      -3.760   1.988   2.565  1.00  0.00     0.035 C 
HETATM    6  C5  UNL     1      -4.170   0.526   2.750  1.00  0.00     0.038 C 
HETATM    7  O7  UNL     1      -3.245  -1.594   3.359  1.00  0.00    -0.221 OA
ENDROOT
BRANCH   4   8
HETATM    8  C6  UNL     1      -3.018   2.011   0.099  1.00  0.00     0.179 C 
HETATM    9  O6  UNL     1      -3.964   3.022  -0.172  1.00  0.00    -0.221 OA
BRANCH   8  10
HETATM   10  C7  UNL     1      -1.869   2.171  -0.901  1.00  0.00     0.038 C 
BRANCH  10  11
HETATM   11  C8  UNL     1      -2.334   2.145  -2.370  1.00  0.00     0.036 C 
BRANCH  11  12
HETATM   12  C9  UNL     1      -1.232   1.679  -3.329  1.00  0.00     0.152 C 
HETATM   13  O5  UNL     1      -1.477   2.209  -4.611  1.00  0.00    -0.224 OA
BRANCH  12  14
HETATM   14  C10 UNL     1      -1.174   0.151  -3.436  1.00  0.00     0.033 C 
BRANCH  14  15
HETATM   15  C11 UNL     1       0.128  -0.354  -4.078  1.00  0.00     0.003 C 
BRANCH  15  16
HETATM   16  C12 UNL     1       0.159  -1.889  -4.190  1.00  0.00     0.000 C 
BRANCH  16  17
HETATM   17  C13 UNL     1       1.581  -2.412  -4.449  1.00  0.00     0.003 C 
BRANCH  17  18
HETATM   18  C14 UNL     1       1.654  -3.949  -4.484  1.00  0.00     0.033 C 
BRANCH  18  19
HETATM   19  C15 UNL     1       3.087  -4.465  -4.319  1.00  0.00     0.157 C 
HETATM   20  O4  UNL     1       3.151  -5.794  -4.787  1.00  0.00    -0.223 OA
BRANCH  19  21
HETATM   21  C16 UNL     1       3.555  -4.441  -2.861  1.00  0.00     0.064 C 
BRANCH  21  22
HETATM   22  C17 UNL     1       5.050  -4.454  -2.734  1.00  0.00     0.042 A 
HETATM   23  C18 UNL     1       5.930  -5.397  -3.145  1.00  0.00     0.292 A 
HETATM   24  O2  UNL     1       7.245  -5.125  -2.888  1.00  0.00    -0.297 OA
HETATM   25  O3  UNL     1       5.568  -6.406  -3.709  1.00  0.00    -0.260 OA
HETATM   26  C19 UNL     1       7.253  -3.865  -2.243  1.00  0.00     0.146 A 
HETATM   27  C20 UNL     1       5.796  -3.497  -2.172  1.00  0.00     0.005 A 
HETATM   28  C21 UNL     1       8.061  -2.857  -3.052  1.00  0.00     0.038 C 
ENDBRANCH  21  22
ENDBRANCH  19  21
ENDBRANCH  18  19
ENDBRANCH  17  18
ENDBRANCH  16  17
ENDBRANCH  15  16
ENDBRANCH  14  15
ENDBRANCH  12  14
ENDBRANCH  11  12
ENDBRANCH  10  11
ENDBRANCH   8  10
ENDBRANCH   4   8
BRANCH   2  29
HETATM   29  C22 UNL     1      -1.801  -0.919   0.943  1.00  0.00     0.032 C 
BRANCH  29  30
HETATM   30  C23 UNL     1      -1.372  -2.393   1.099  1.00  0.00     0.003 C 
BRANCH  30  31
HETATM   31  C24 UNL     1      -0.794  -2.991  -0.200  1.00  0.00     0.000 C 
BRANCH  31  32
HETATM   32  C25 UNL     1       0.732  -2.877  -0.412  1.00  0.00     0.000 C 
BRANCH  32  33
HETATM   33  C26 UNL     1       1.321  -1.459  -0.540  1.00  0.00     0.000 C 
BRANCH  33  34
HETATM   34  C27 UNL     1       1.753  -0.869   0.812  1.00  0.00     0.000 C 
BRANCH  34  35
HETATM   35  C28 UNL     1       1.828   0.667   0.834  1.00  0.00     0.000 C 
BRANCH  35  36
HETATM   36  C29 UNL     1       2.094   1.173   2.262  1.00  0.00     0.000 C 
BRANCH  36  37
HETATM   37  C30 UNL     1       1.833   2.677   2.446  1.00  0.00     0.000 C 
BRANCH  37  38
HETATM   38  C31 UNL     1       2.009   3.079   3.921  1.00  0.00     0.000 C 
BRANCH  38  39
HETATM   39  C32 UNL     1       1.604   4.534   4.204  1.00  0.00     0.000 C 
BRANCH  39  40
HETATM   40  C33 UNL     1       1.757   4.873   5.697  1.00  0.00     0.000 C 
BRANCH  40  41
HETATM   41  C34 UNL     1       1.295   6.300   6.028  1.00  0.00     0.000 C 
HETATM   42  C35 UNL     1       1.446   6.612   7.523  1.00  0.00     0.000 C 
ENDBRANCH  40  41
ENDBRANCH  39  40
ENDBRANCH  38  39
ENDBRANCH  37  38
ENDBRANCH  36  37
ENDBRANCH  35  36
ENDBRANCH  34  35
ENDBRANCH  33  34
ENDBRANCH  32  33
ENDBRANCH  31  32
ENDBRANCH  30  31
ENDBRANCH  29  30
ENDBRANCH   2  29
TORSDOF 25
