REMARK  5 active torsions:
REMARK  status: ('A' for Active; 'I' for Inactive)
REMARK    1  A    between atoms: C1_1  and  O7_29 
REMARK    2  A    between atoms: C2_2  and  O6_27 
REMARK    3  A    between atoms: C3_3  and  O5_25 
REMARK    4  A    between atoms: C14_14  and  O2_19 
REMARK    5  A    between atoms: C15_15  and  O1_17 
ROOT
HETATM    1  C1  UNL     1      -0.949   0.565  -0.474  1.00  0.00     0.118 C 
HETATM    2  C2  UNL     1      -0.121   1.597  -0.223  1.00  0.00     0.138 C 
HETATM    3  C3  UNL     1       1.173   1.355   0.093  1.00  0.00     0.118 C 
HETATM    4  C4  UNL     1       1.714   0.116  -0.075  1.00  0.00     0.024 C 
HETATM    5  C5  UNL     1       0.899  -0.926  -0.370  1.00  0.00     0.009 C 
HETATM    6  C6  UNL     1      -0.401  -0.653  -0.580  1.00  0.00     0.024 C 
HETATM    7  C7  UNL     1       1.242  -2.405  -0.596  1.00  0.00     0.138 C 
HETATM    8  C8  UNL     1       2.672  -2.906  -0.469  1.00  0.00     0.034 C 
HETATM    9  C9  UNL     1       2.708  -3.107   1.055  1.00  0.00     0.037 C 
HETATM   10  C10 UNL     1       2.792  -1.778   1.830  1.00  0.00     0.029 C 
HETATM   11  C11 UNL     1       3.611  -0.807   1.016  1.00  0.00    -0.018 A 
HETATM   12  C12 UNL     1       3.052   0.034   0.125  1.00  0.00     0.025 A 
HETATM   13  C13 UNL     1       3.871   0.834  -0.598  1.00  0.00     0.155 A 
HETATM   14  C14 UNL     1       5.205   0.868  -0.381  1.00  0.00     0.141 A 
HETATM   15  C15 UNL     1       5.769   0.006   0.494  1.00  0.00     0.118 A 
HETATM   16  C16 UNL     1       4.942  -0.799   1.181  1.00  0.00     0.022 A 
HETATM   17  O3  UNL     1       3.372   1.627  -1.595  1.00  0.00    -0.188 OA
HETATM   18  C19 UNL     1       1.343  -3.750   1.274  1.00  0.00     0.143 C 
HETATM   19  O4  UNL     1       0.486  -3.206   0.298  1.00  0.00    -0.352 OA
HETATM   20  C20 UNL     1       2.913  -4.215  -1.246  1.00  0.00     0.003 C 
ENDROOT
BRANCH   1  21
HETATM   21  O7  UNL     1      -2.275   0.761  -0.770  1.00  0.00    -0.326 OA
HETATM   22  C23 UNL     1      -3.125   0.638   0.348  1.00  0.00     0.181 C 
ENDBRANCH   1  21
BRANCH   2  23
HETATM   23  O6  UNL     1      -0.646   2.862  -0.099  1.00  0.00    -0.324 OA
HETATM   24  C22 UNL     1      -0.585   3.618  -1.287  1.00  0.00     0.182 C 
ENDBRANCH   2  23
BRANCH   3  25
HETATM   25  O5  UNL     1       1.942   2.438   0.475  1.00  0.00    -0.326 OA
HETATM   26  C21 UNL     1       1.871   2.728   1.854  1.00  0.00     0.181 C 
ENDBRANCH   3  25
BRANCH  14  27
HETATM   27  O2  UNL     1       5.976   1.698  -1.156  1.00  0.00    -0.324 OA
HETATM   28  C18 UNL     1       6.270   2.932  -0.541  1.00  0.00     0.182 C 
ENDBRANCH  14  27
BRANCH  15  29
HETATM   29  O1  UNL     1       7.120  -0.066   0.745  1.00  0.00    -0.326 OA
HETATM   30  C17 UNL     1       7.963  -0.332  -0.354  1.00  0.00     0.181 C 
ENDBRANCH  15  29
TORSDOF 5
