REMARK  9 active torsions:
REMARK  status: ('A' for Active; 'I' for Inactive)
REMARK    1  A    between atoms: C7_8  and  C30_32 
REMARK    2  A    between atoms: C9_10  and  C10_11 
REMARK    3  A    between atoms: C10_11  and  C11_12 
REMARK    4  A    between atoms: C16_17  and  C25_26 
REMARK    5  A    between atoms: C17_18  and  C18_19 
REMARK    6  A    between atoms: C18_19  and  C19_20 
REMARK    7  A    between atoms: C19_20  and  C20_21 
REMARK    8  A    between atoms: C25_26  and  C26_27 
REMARK    9  A    between atoms: C30_32  and  C31_33 
ROOT
HETATM    1  C1  UNL     1       0.877   3.961   0.493  1.00  0.00     0.117 C 
HETATM    2  O1  UNL     1       0.819   2.562   0.437  1.00  0.00    -0.335 OA
HETATM    3  C2  UNL     1       1.990   1.859   0.499  1.00  0.00     0.081 C 
HETATM    4  C3  UNL     1       3.224   2.391   0.408  1.00  0.00     0.054 C 
HETATM    5  C4  UNL     1       3.339   3.715   0.204  1.00  0.00     0.002 C 
HETATM    6  C5  UNL     1       2.252   4.495   0.185  1.00  0.00     0.001 C 
HETATM    7  C6  UNL     1       4.345   1.615   0.459  1.00  0.00     0.187 C 
HETATM    8  C7  UNL     1       4.306   0.130   0.909  1.00  0.00     0.158 C 
HETATM    9  C8  UNL     1       2.892  -0.182   1.384  1.00  0.00     0.169 C 
HETATM   10  C9  UNL     1       1.844   0.347   0.434  1.00  0.00     0.096 C 
HETATM   11  C15 UNL     1       2.227  -0.025  -1.017  1.00  0.00     0.014 C 
HETATM   12  C16 UNL     1       3.324  -1.098  -1.168  1.00  0.00     0.006 C 
HETATM   13  C17 UNL     1       4.598  -0.902  -0.245  1.00  0.00     0.020 C 
HETATM   14  C24 UNL     1       4.853  -2.336   0.313  1.00  0.00     0.001 C 
HETATM   15  O2  UNL     1       2.649  -0.713   2.444  1.00  0.00    -0.295 OA
HETATM   16  O4  UNL     1       5.434   2.112   0.274  1.00  0.00    -0.290 OA
HETATM   17  C34 UNL     1      -0.138   4.512  -0.513  1.00  0.00     0.035 C 
HETATM   18  C35 UNL     1       0.500   4.393   1.916  1.00  0.00     0.035 C 
ENDROOT
BRANCH  13  19
HETATM   19  C18 UNL     1       5.847  -0.496  -1.080  1.00  0.00     0.006 C 
BRANCH  19  20
HETATM   20  C19 UNL     1       7.204  -0.351  -0.362  1.00  0.00     0.025 C 
BRANCH  20  21
HETATM   21  C20 UNL     1       8.341  -0.049  -1.309  1.00  0.00    -0.035 C 
HETATM   22  C21 UNL     1       9.647  -0.132  -0.997  1.00  0.00    -0.048 C 
HETATM   23  C22 UNL     1      10.720   0.163  -2.018  1.00  0.00     0.026 C 
HETATM   24  C23 UNL     1      10.166  -0.520   0.367  1.00  0.00     0.026 C 
ENDBRANCH  20  21
ENDBRANCH  19  20
ENDBRANCH  13  19
BRANCH   8  25
HETATM   25  C30 UNL     1       5.216   0.045   2.169  1.00  0.00     0.163 C 
HETATM   26  O3  UNL     1       6.025  -0.836   2.351  1.00  0.00    -0.295 OA
BRANCH  25  27
HETATM   27  C31 UNL     1       5.122   1.121   3.258  1.00  0.00     0.059 C 
HETATM   28  C32 UNL     1       6.451   1.891   3.362  1.00  0.00     0.008 C 
HETATM   29  C33 UNL     1       4.792   0.507   4.629  1.00  0.00     0.008 C 
ENDBRANCH  25  27
ENDBRANCH   8  25
BRANCH  12  30
HETATM   30  C25 UNL     1       3.559  -1.298  -2.689  1.00  0.00     0.025 C 
BRANCH  30  31
HETATM   31  C26 UNL     1       4.260  -2.576  -3.079  1.00  0.00    -0.035 C 
HETATM   32  C27 UNL     1       5.305  -2.720  -3.916  1.00  0.00    -0.048 C 
HETATM   33  C28 UNL     1       5.881  -4.087  -4.209  1.00  0.00     0.026 C 
HETATM   34  C29 UNL     1       6.012  -1.594  -4.634  1.00  0.00     0.026 C 
ENDBRANCH  30  31
ENDBRANCH  12  30
BRANCH  10  35
HETATM   35  C10 UNL     1       0.434  -0.136   0.842  1.00  0.00     0.038 C 
BRANCH  35  36
HETATM   36  C11 UNL     1       0.269  -1.636   0.867  1.00  0.00    -0.034 C 
HETATM   37  C12 UNL     1      -0.862  -2.292   1.181  1.00  0.00    -0.048 C 
HETATM   38  C13 UNL     1      -0.916  -3.802   1.192  1.00  0.00     0.026 C 
HETATM   39  C14 UNL     1      -2.156  -1.609   1.553  1.00  0.00     0.026 C 
ENDBRANCH  35  36
ENDBRANCH  10  35
TORSDOF 9
