REMARK  0 active torsions:
REMARK  status: ('A' for Active; 'I' for Inactive)
ROOT
HETATM    1  C1  UNL     1       4.308   1.055  -0.232  1.00  0.00     0.046 A 
HETATM    2  C2  UNL     1       3.180   1.799  -0.373  1.00  0.00     0.218 A 
HETATM    3  C3  UNL     1       1.969   1.206  -0.176  1.00  0.00     0.132 A 
HETATM    4  C4  UNL     1       1.891  -0.102   0.143  1.00  0.00     0.046 A 
HETATM    5  C5  UNL     1       3.024  -0.836   0.315  1.00  0.00     0.194 A 
HETATM    6  C6  UNL     1       4.229  -0.241   0.112  1.00  0.00     0.042 A 
HETATM    7  C7  UNL     1       5.367  -0.946   0.257  1.00  0.00     0.005 A 
HETATM    8  C8  UNL     1       6.562  -0.370   0.056  1.00  0.00     0.028 A 
HETATM    9  C9  UNL     1       6.658   0.922  -0.294  1.00  0.00     0.131 A 
HETATM   10  C10 UNL     1       5.516   1.617  -0.429  1.00  0.00     0.031 A 
HETATM   11  O1  UNL     1       7.866   1.513  -0.502  1.00  0.00    -0.190 OA
HETATM   12  O2  UNL     1       2.961  -1.995   0.663  1.00  0.00    -0.287 OA
HETATM   13  C11 UNL     1       0.526  -0.736   0.364  1.00  0.00     0.051 C 
HETATM   14  C12 UNL     1      -0.599   0.227  -0.058  1.00  0.00     0.034 C 
HETATM   15  C13 UNL     1      -0.286   1.656   0.398  1.00  0.00     0.099 C 
HETATM   16  O3  UNL     1       0.887   2.049  -0.244  1.00  0.00    -0.333 OA
HETATM   17  C14 UNL     1      -0.118   1.803   1.916  1.00  0.00     0.030 C 
HETATM   18  C15 UNL     1      -1.367   2.647  -0.065  1.00  0.00     0.030 C 
HETATM   19  C16 UNL     1      -1.935  -0.373   0.404  1.00  0.00     0.007 C 
HETATM   20  C17 UNL     1      -2.210  -1.673  -0.369  1.00  0.00     0.022 C 
HETATM   21  C18 UNL     1      -0.971  -2.498  -0.625  1.00  0.00    -0.048 C 
HETATM   22  C19 UNL     1       0.263  -2.055  -0.330  1.00  0.00    -0.030 C 
HETATM   23  C20 UNL     1      -1.201  -3.840  -1.278  1.00  0.00     0.026 C 
HETATM   24  O4  UNL     1       3.239   2.976  -0.658  1.00  0.00    -0.284 OA
ENDROOT
TORSDOF 0
