REMARK  0 active torsions:
REMARK  status: ('A' for Active; 'I' for Inactive)
ROOT
HETATM    1  C1  UNL     1       2.905   1.287  -0.365  1.00  0.00     0.027 C 
HETATM    2  C2  UNL     1       2.864  -0.166   0.008  1.00  0.00    -0.044 C 
HETATM    3  C3  UNL     1       1.687  -0.795   0.142  1.00  0.00    -0.009 C 
HETATM    4  C4  UNL     1       0.487  -0.191   0.051  1.00  0.00    -0.003 A 
HETATM    5  C5  UNL     1       0.397   1.161   0.024  1.00  0.00    -0.026 A 
HETATM    6  C6  UNL     1       1.659   1.992   0.169  1.00  0.00     0.030 C 
HETATM    7  C7  UNL     1      -0.803   1.784  -0.055  1.00  0.00    -0.024 A 
HETATM    8  C8  UNL     1      -1.931   1.055  -0.113  1.00  0.00     0.020 A 
HETATM    9  C9  UNL     1      -1.844  -0.277  -0.076  1.00  0.00     0.099 A 
HETATM   10  C10 UNL     1      -0.658  -0.897   0.009  1.00  0.00     0.021 A 
HETATM   11  C11 UNL     1      -0.995  -2.200   0.014  1.00  0.00     0.005 A 
HETATM   12  C12 UNL     1      -2.333  -2.197  -0.064  1.00  0.00     0.118 A 
HETATM   13  O1  UNL     1      -2.792  -1.059  -0.113  1.00  0.00    -0.305 OA
HETATM   14  C13 UNL     1      -0.157  -3.443   0.072  1.00  0.00     0.033 C 
HETATM   15  C14 UNL     1      -0.928   3.295  -0.050  1.00  0.00     0.031 C 
HETATM   16  C15 UNL     1       4.186  -0.892   0.042  1.00  0.00     0.026 C 
ENDROOT
TORSDOF 0
