REMARK  7 active torsions:
REMARK  status: ('A' for Active; 'I' for Inactive)
REMARK    1  A    between atoms: C3_3  and  O9_28 
REMARK    2  A    between atoms: C5_5  and  C7_8 
REMARK    3  A    between atoms: C9_10  and  O3_16 
REMARK    4  A    between atoms: O3_16  and  C14_17 
REMARK    5  A    between atoms: C15_19  and  C19_26 
REMARK    6  A    between atoms: O9_28  and  C20_29 
REMARK    7  A    between atoms: C21_31  and  C25_38 
ROOT
HETATM    1  C1  UNL     1       3.931   1.848  -3.538  1.00  0.00     0.005 A 
HETATM    2  C2  UNL     1       3.343   3.011  -3.211  1.00  0.00     0.022 A 
HETATM    3  C3  UNL     1       2.819   3.235  -1.996  1.00  0.00     0.097 A 
HETATM    4  C4  UNL     1       2.889   2.190  -1.151  1.00  0.00     0.026 A 
HETATM    5  C5  UNL     1       3.412   0.981  -1.434  1.00  0.00     0.029 A 
HETATM    6  C6  UNL     1       3.993   0.835  -2.647  1.00  0.00     0.127 A 
HETATM    7  O1  UNL     1       4.528  -0.350  -3.058  1.00  0.00    -0.191 OA
HETATM    8  C26 UNL     1       4.505   1.677  -4.929  1.00  0.00     0.033 C 
ENDROOT
BRANCH   5   9
HETATM    9  C7  UNL     1       3.346   0.001  -0.494  1.00  0.00     0.029 A 
HETATM   10  C8  UNL     1       4.366  -0.865  -0.319  1.00  0.00     0.026 A 
HETATM   11  C9  UNL     1       4.399  -1.836   0.613  1.00  0.00     0.097 A 
HETATM   12  C10 UNL     1       3.299  -1.941   1.377  1.00  0.00     0.022 A 
HETATM   13  C11 UNL     1       2.244  -1.125   1.236  1.00  0.00     0.005 A 
HETATM   14  C12 UNL     1       2.265  -0.143   0.314  1.00  0.00     0.127 A 
HETATM   15  C13 UNL     1       1.020  -1.314   2.107  1.00  0.00     0.033 C 
HETATM   16  O2  UNL     1       1.129   0.596   0.156  1.00  0.00    -0.191 OA
BRANCH  11  17
HETATM   17  O3  UNL     1       5.503  -2.652   0.700  1.00  0.00    -0.304 OA
BRANCH  17  18
HETATM   18  C14 UNL     1       5.423  -3.858   1.429  1.00  0.00     0.274 C 
HETATM   19  O4  UNL     1       4.502  -4.658   0.721  1.00  0.00    -0.326 OA
HETATM   20  C15 UNL     1       4.294  -5.922   1.294  1.00  0.00     0.184 C 
HETATM   21  C16 UNL     1       5.612  -6.684   1.379  1.00  0.00     0.215 C 
HETATM   22  C17 UNL     1       6.714  -5.877   2.039  1.00  0.00     0.220 C 
HETATM   23  O7  UNL     1       5.472  -7.884   2.099  1.00  0.00    -0.218 OA
HETATM   24  C18 UNL     1       6.793  -4.491   1.441  1.00  0.00     0.241 C 
HETATM   25  O6  UNL     1       7.941  -6.532   1.825  1.00  0.00    -0.218 OA
HETATM   26  O5  UNL     1       7.272  -4.598   0.122  1.00  0.00    -0.215 OA
BRANCH  20  27
HETATM   27  C19 UNL     1       3.502  -5.821   2.593  1.00  0.00     0.214 C 
HETATM   28  O8  UNL     1       2.733  -6.992   2.789  1.00  0.00    -0.218 OA
ENDBRANCH  20  27
ENDBRANCH  17  18
ENDBRANCH  11  17
ENDBRANCH   5   9
BRANCH   3  29
HETATM   29  O9  UNL     1       2.200   4.433  -1.717  1.00  0.00    -0.304 OA
BRANCH  29  30
HETATM   30  C20 UNL     1       1.187   4.412  -0.733  1.00  0.00     0.274 C 
HETATM   31  O10 UNL     1       0.709   5.736  -0.653  1.00  0.00    -0.326 OA
HETATM   32  C21 UNL     1      -0.217   5.881   0.392  1.00  0.00     0.184 C 
HETATM   33  C22 UNL     1      -1.429   4.976   0.166  1.00  0.00     0.215 C 
HETATM   34  C23 UNL     1      -1.048   3.534  -0.136  1.00  0.00     0.220 C 
HETATM   35  O13 UNL     1      -2.186   5.470  -0.916  1.00  0.00    -0.218 OA
HETATM   36  C24 UNL     1       0.055   3.508  -1.173  1.00  0.00     0.241 C 
HETATM   37  O12 UNL     1      -0.559   2.907   1.030  1.00  0.00    -0.218 OA
HETATM   38  O11 UNL     1      -0.404   3.961  -2.424  1.00  0.00    -0.215 OA
BRANCH  32  39
HETATM   39  C25 UNL     1      -0.612   7.349   0.500  1.00  0.00     0.214 C 
HETATM   40  O14 UNL     1       0.499   8.115   0.923  1.00  0.00    -0.218 OA
ENDBRANCH  32  39
ENDBRANCH  29  30
ENDBRANCH   3  29
TORSDOF 7
