REMARK  0 active torsions:
REMARK  status: ('A' for Active; 'I' for Inactive)
ROOT
HETATM    1  C1  UNL     1      -1.515   0.997   0.693  1.00  0.00     0.259 A 
HETATM    2  C2  UNL     1      -2.237   0.049  -0.246  1.00  0.00     0.100 A 
HETATM    3  C3  UNL     1      -1.116  -0.902  -0.732  1.00  0.00     0.100 A 
HETATM    4  C4  UNL     1       0.116  -0.398  -0.005  1.00  0.00     0.259 A 
HETATM    5  N1  UNL     1      -0.191   0.678   0.775  1.00  0.00    -0.177 NA
HETATM    6  O1  UNL     1       1.233  -0.853  -0.074  1.00  0.00    -0.270 OA
HETATM    7  O2  UNL     1      -2.001   1.916   1.307  1.00  0.00    -0.270 OA
ENDROOT
TORSDOF 0
