REMARK  4 active torsions:
REMARK  status: ('A' for Active; 'I' for Inactive)
REMARK    1  A    between atoms: C5_5  and  C7_7 
REMARK    2  A    between atoms: C7_7  and  O2_9 
REMARK    3  A    between atoms: O2_9  and  C8_10 
REMARK    4  A    between atoms: C14_16  and  C17_19 
ROOT
HETATM    1  C8  UNL     1       3.419   0.459   0.617  1.00  0.00     0.130 C 
HETATM    2  C9  UNL     1       1.992   0.045   0.262  1.00  0.00     0.033 C 
HETATM    3  C10 UNL     1       1.863  -1.490   0.263  1.00  0.00     0.037 C 
HETATM    4  C11 UNL     1       3.094  -2.174  -0.377  1.00  0.00     0.157 C 
HETATM    5  C12 UNL     1       4.067  -1.252  -1.146  1.00  0.00     0.157 C 
HETATM    6  C13 UNL     1       4.457   0.107  -0.475  1.00  0.00     0.086 C 
HETATM    7  C14 UNL     1       4.548   1.136  -1.647  1.00  0.00     0.182 C 
HETATM    8  C15 UNL     1       4.541   0.285  -2.923  1.00  0.00     0.041 C 
HETATM    9  C16 UNL     1       3.615  -0.878  -2.561  1.00  0.00     0.036 C 
HETATM   10  O4  UNL     1       3.388   1.932  -1.739  1.00  0.00    -0.218 OA
HETATM   11  C19 UNL     1       5.823   0.005   0.257  1.00  0.00     0.008 C 
HETATM   12  O5  UNL     1       5.231  -2.027  -1.327  1.00  0.00    -0.223 OA
HETATM   13  O6  UNL     1       3.879  -2.674   0.687  1.00  0.00    -0.223 OA
HETATM   14  C20 UNL     1       2.729  -3.418  -1.191  1.00  0.00     0.058 C 
HETATM   15  C21 UNL     1       1.520  -4.160  -0.710  1.00  0.00    -0.032 C 
HETATM   16  C22 UNL     1       0.440  -3.525  -0.232  1.00  0.00    -0.046 C 
HETATM   17  C23 UNL     1       0.427  -2.020  -0.042  1.00  0.00     0.018 C 
HETATM   18  C24 UNL     1      -0.482  -1.635   1.159  1.00  0.00     0.004 C 
HETATM   19  C25 UNL     1      -0.201  -1.490  -1.349  1.00  0.00     0.006 C 
HETATM   20  C26 UNL     1      -1.569  -2.136  -1.656  1.00  0.00     0.034 C 
HETATM   21  C27 UNL     1      -1.555  -3.667  -1.583  1.00  0.00     0.156 C 
HETATM   22  C28 UNL     1      -0.904  -4.210  -0.308  1.00  0.00     0.055 C 
HETATM   23  O7  UNL     1      -2.873  -4.154  -1.673  1.00  0.00    -0.223 OA
ENDROOT
BRANCH   1  24
HETATM   24  O2  UNL     1       3.592   1.749   1.141  1.00  0.00    -0.301 OA
BRANCH  24  25
HETATM   25  C7  UNL     1       2.564   2.651   1.208  1.00  0.00     0.296 C 
HETATM   26  O1  UNL     1       1.849   2.783   0.238  1.00  0.00    -0.259 OA
BRANCH  25  27
HETATM   27  C5  UNL     1       2.264   3.352   2.342  1.00  0.00     0.063 A 
HETATM   28  C4  UNL     1       1.218   4.199   2.376  1.00  0.00     0.007 A 
HETATM   29  C3  UNL     1       0.908   4.861   3.502  1.00  0.00     0.028 A 
HETATM   30  C2  UNL     1       1.624   4.705   4.628  1.00  0.00     0.131 A 
HETATM   31  C1  UNL     1       2.673   3.868   4.583  1.00  0.00     0.028 A 
HETATM   32  O8  UNL     1       1.289   5.370   5.766  1.00  0.00    -0.190 OA
HETATM   33  C6  UNL     1       2.994   3.202   3.463  1.00  0.00     0.007 A 
ENDBRANCH  25  27
ENDBRANCH  24  25
ENDBRANCH   1  24
BRANCH   7  34
HETATM   34  C17 UNL     1       5.785   2.043  -1.642  1.00  0.00     0.178 C 
HETATM   35  C18 UNL     1       5.684   3.426  -1.024  1.00  0.00     0.075 C 
HETATM   36  O3  UNL     1       6.835   1.675  -2.121  1.00  0.00    -0.293 OA
ENDBRANCH   7  34
TORSDOF 4
