REMARK  8 active torsions:
REMARK  status: ('A' for Active; 'I' for Inactive)
REMARK    1  A    between atoms: C1_1  and  O10_28 
REMARK    2  A    between atoms: C2_2  and  O4_16 
REMARK    3  A    between atoms: C3_3  and  C8_10 
REMARK    4  A    between atoms: C4_4  and  O2_8 
REMARK    5  A    between atoms: C8_10  and  C9_11 
REMARK    6  A    between atoms: C9_11  and  C10_12 
REMARK    7  A    between atoms: O4_16  and  C13_17 
REMARK    8  A    between atoms: C14_19  and  C18_26 
ROOT
HETATM    1  C1  UNL     1       3.268   0.183   1.824  1.00  0.00     0.119 A 
HETATM    2  C2  UNL     1       2.653   0.182   0.616  1.00  0.00     0.121 A 
HETATM    3  C3  UNL     1       2.741  -0.929  -0.170  1.00  0.00     0.044 A 
HETATM    4  C4  UNL     1       3.378  -2.054   0.250  1.00  0.00     0.121 A 
HETATM    5  C5  UNL     1       3.962  -2.045   1.467  1.00  0.00     0.155 A 
HETATM    6  C6  UNL     1       3.893  -0.937   2.214  1.00  0.00     0.056 A 
HETATM    7  O1  UNL     1       4.624  -3.110   1.997  1.00  0.00    -0.188 OA
ENDROOT
BRANCH   2   8
HETATM    8  O4  UNL     1       2.033   1.373   0.265  1.00  0.00    -0.302 OA
BRANCH   8   9
HETATM    9  C13 UNL     1       0.691   1.420  -0.178  1.00  0.00     0.274 C 
HETATM   10  O5  UNL     1       0.306   2.781  -0.226  1.00  0.00    -0.326 OA
HETATM   11  C14 UNL     1      -0.107   3.378   0.971  1.00  0.00     0.184 C 
HETATM   12  C15 UNL     1      -1.192   2.568   1.663  1.00  0.00     0.215 C 
HETATM   13  C16 UNL     1      -0.819   1.111   1.853  1.00  0.00     0.220 C 
HETATM   14  O8  UNL     1      -2.363   2.617   0.874  1.00  0.00    -0.218 OA
HETATM   15  C17 UNL     1      -0.302   0.536   0.550  1.00  0.00     0.241 C 
HETATM   16  O7  UNL     1       0.154   0.963   2.856  1.00  0.00    -0.218 OA
HETATM   17  O6  UNL     1      -1.409   0.349  -0.306  1.00  0.00    -0.215 OA
BRANCH  11  18
HETATM   18  C18 UNL     1       1.060   3.798   1.849  1.00  0.00     0.214 C 
HETATM   19  O9  UNL     1       0.628   4.744   2.808  1.00  0.00    -0.218 OA
ENDBRANCH  11  18
ENDBRANCH   8   9
ENDBRANCH   2   8
BRANCH   1  20
HETATM   20  O10 UNL     1       3.233   1.327   2.589  1.00  0.00    -0.326 OA
HETATM   21  C19 UNL     1       3.933   1.379   3.810  1.00  0.00     0.181 C 
ENDBRANCH   1  20
BRANCH   3  22
HETATM   22  C8  UNL     1       2.098  -0.872  -1.560  1.00  0.00    -0.019 C 
BRANCH  22  23
HETATM   23  C9  UNL     1       2.333  -1.874  -2.705  1.00  0.00     0.057 C 
BRANCH  23  24
HETATM   24  C10 UNL     1       1.544  -1.577  -3.997  1.00  0.00     0.131 C 
HETATM   25  C11 UNL     1       1.938  -0.249  -4.647  1.00  0.00     0.033 C 
HETATM   26  O3  UNL     1       1.861  -2.595  -4.915  1.00  0.00    -0.226 OA
HETATM   27  C12 UNL     1       0.028  -1.629  -3.781  1.00  0.00     0.033 C 
ENDBRANCH  23  24
ENDBRANCH  22  23
ENDBRANCH   3  22
BRANCH   4  28
HETATM   28  O2  UNL     1       3.449  -3.132  -0.599  1.00  0.00    -0.326 OA
HETATM   29  C7  UNL     1       4.444  -4.120  -0.479  1.00  0.00     0.181 C 
ENDBRANCH   4  28
TORSDOF 8
