REMARK  26 active torsions:
REMARK  status: ('A' for Active; 'I' for Inactive)
REMARK    1  A    between atoms: C4_4  and  C33_35 
REMARK    2  A    between atoms: C5_5  and  C7_7 
REMARK       I    between atoms: C7_7  and  N1_9 
REMARK    3  A    between atoms: N1_9  and  C8_10 
REMARK    4  A    between atoms: C8_10  and  C9_11 
REMARK    5  A    between atoms: C9_11  and  C10_12 
REMARK    6  A    between atoms: C10_12  and  C11_13 
REMARK    7  A    between atoms: C11_13  and  C12_14 
REMARK    8  A    between atoms: C12_14  and  C13_15 
REMARK    9  A    between atoms: C13_15  and  C14_16 
REMARK   10  A    between atoms: C14_16  and  C15_17 
REMARK   11  A    between atoms: C15_17  and  C16_18 
REMARK   12  A    between atoms: C16_18  and  C17_19 
REMARK   13  A    between atoms: C17_19  and  C18_20 
REMARK   14  A    between atoms: C18_20  and  C19_21 
REMARK   15  A    between atoms: C19_21  and  C20_22 
REMARK   16  A    between atoms: C20_22  and  C21_23 
REMARK   17  A    between atoms: C21_23  and  C22_24 
REMARK   18  A    between atoms: C22_24  and  C23_25 
REMARK   19  A    between atoms: C23_25  and  C24_26 
REMARK   20  A    between atoms: C24_26  and  C25_27 
REMARK   21  A    between atoms: C25_27  and  C26_28 
REMARK   22  A    between atoms: C26_28  and  C27_29 
REMARK   23  A    between atoms: C27_29  and  C28_30 
REMARK   24  A    between atoms: C28_30  and  C29_31 
REMARK   25  A    between atoms: C29_31  and  C30_32 
REMARK   26  A    between atoms: C30_32  and  C31_33 
ROOT
HETATM    1  C14 UNL     1       1.812  -1.148   1.024  1.00  0.00     0.000 C 
ENDROOT
BRANCH   1   2
HETATM    2  C13 UNL     1       1.275   0.174   1.593  1.00  0.00     0.000 C 
BRANCH   2   3
HETATM    3  C12 UNL     1       2.281   1.321   1.404  1.00  0.00     0.000 C 
BRANCH   3   4
HETATM    4  C11 UNL     1       1.718   2.667   1.884  1.00  0.00     0.000 C 
BRANCH   4   5
HETATM    5  C10 UNL     1       2.681   3.827   1.590  1.00  0.00     0.002 C 
BRANCH   5   6
HETATM    6  C9  UNL     1       2.071   5.184   1.974  1.00  0.00     0.026 C 
BRANCH   6   7
HETATM    7  C8  UNL     1       3.005   6.350   1.611  1.00  0.00     0.129 C 
BRANCH   7   8
HETATM    8  N1  UNL     1       2.626   7.560   2.354  1.00  0.00    -0.234 NA
HETATM    9  C7  UNL     1       3.482   8.486   2.889  1.00  0.00     0.275 C 
HETATM   10  O1  UNL     1       3.024   9.603   2.961  1.00  0.00    -0.266 OA
BRANCH   9  11
HETATM   11  C5  UNL     1       4.830   8.281   2.910  1.00  0.00     0.063 A 
HETATM   12  C4  UNL     1       5.434   7.202   3.467  1.00  0.00     0.069 A 
HETATM   13  C3  UNL     1       6.771   7.073   3.346  1.00  0.00     0.006 A 
HETATM   14  C2  UNL     1       7.516   8.007   2.736  1.00  0.00     0.000 A 
HETATM   15  C1  UNL     1       6.926   9.105   2.248  1.00  0.00     0.000 A 
HETATM   16  C6  UNL     1       5.595   9.233   2.337  1.00  0.00     0.005 A 
BRANCH  12  17
HETATM   17  C33 UNL     1       4.776   6.243   4.183  1.00  0.00     0.211 C 
HETATM   18  O2  UNL     1       3.598   6.326   4.442  1.00  0.00    -0.644 OA
HETATM   19  O3  UNL     1       5.384   5.154   4.708  1.00  0.00    -0.644 OA
ENDBRANCH  12  17
ENDBRANCH   9  11
ENDBRANCH   7   8
ENDBRANCH   6   7
ENDBRANCH   5   6
ENDBRANCH   4   5
ENDBRANCH   3   4
ENDBRANCH   2   3
ENDBRANCH   1   2
BRANCH   1  20
HETATM   20  C15 UNL     1       0.787  -2.288   1.128  1.00  0.00     0.000 C 
BRANCH  20  21
HETATM   21  C16 UNL     1       1.317  -3.583   0.491  1.00  0.00     0.000 C 
BRANCH  21  22
HETATM   22  C17 UNL     1       0.270  -4.708   0.505  1.00  0.00     0.000 C 
BRANCH  22  23
HETATM   23  C18 UNL     1       0.773  -5.966  -0.223  1.00  0.00     0.000 C 
BRANCH  23  24
HETATM   24  C19 UNL     1      -0.331  -7.025  -0.378  1.00  0.00     0.000 C 
BRANCH  24  25
HETATM   25  C20 UNL     1       0.095  -8.190  -1.290  1.00  0.00     0.000 C 
BRANCH  25  26
HETATM   26  C21 UNL     1      -1.087  -9.005  -1.850  1.00  0.00     0.000 C 
BRANCH  26  27
HETATM   27  C22 UNL     1      -1.668  -8.531  -3.200  1.00  0.00     0.000 C 
BRANCH  27  28
HETATM   28  C23 UNL     1      -2.386  -7.169  -3.191  1.00  0.00     0.000 C 
BRANCH  28  29
HETATM   29  C24 UNL     1      -1.456  -5.979  -3.485  1.00  0.00     0.000 C 
BRANCH  29  30
HETATM   30  C25 UNL     1      -2.043  -4.641  -3.006  1.00  0.00     0.000 C 
BRANCH  30  31
HETATM   31  C26 UNL     1      -1.023  -3.496  -3.110  1.00  0.00     0.000 C 
BRANCH  31  32
HETATM   32  C27 UNL     1      -1.554  -2.198  -2.483  1.00  0.00     0.000 C 
BRANCH  32  33
HETATM   33  C28 UNL     1      -0.525  -1.058  -2.552  1.00  0.00     0.000 C 
BRANCH  33  34
HETATM   34  C29 UNL     1      -1.064   0.233  -1.917  1.00  0.00     0.000 C 
BRANCH  34  35
HETATM   35  C30 UNL     1      -0.064   1.393  -2.033  1.00  0.00     0.000 C 
BRANCH  35  36
HETATM   36  C31 UNL     1      -0.616   2.688  -1.415  1.00  0.00     0.000 C 
HETATM   37  C32 UNL     1       0.365   3.857  -1.572  1.00  0.00     0.000 C 
ENDBRANCH  35  36
ENDBRANCH  34  35
ENDBRANCH  33  34
ENDBRANCH  32  33
ENDBRANCH  31  32
ENDBRANCH  30  31
ENDBRANCH  29  30
ENDBRANCH  28  29
ENDBRANCH  27  28
ENDBRANCH  26  27
ENDBRANCH  25  26
ENDBRANCH  24  25
ENDBRANCH  23  24
ENDBRANCH  22  23
ENDBRANCH  21  22
ENDBRANCH  20  21
ENDBRANCH   1  20
TORSDOF 26
