REMARK  6 active torsions:
REMARK  status: ('A' for Active; 'I' for Inactive)
REMARK    1  A    between atoms: C3_3  and  C31_32 
REMARK    2  A    between atoms: C15_16  and  C18_19 
REMARK    3  A    between atoms: C18_19  and  C19_20 
REMARK    4  A    between atoms: C19_20  and  C20_21 
REMARK    5  A    between atoms: C20_21  and  C21_22 
REMARK    6  A    between atoms: C21_22  and  C22_23 
ROOT
HETATM    1  C1  UNL     1      -1.885  -1.655  -3.274  1.00  0.00     0.098 C 
HETATM    2  C2  UNL     1      -2.302  -2.421  -2.022  1.00  0.00     0.169 C 
HETATM    3  C3  UNL     1      -1.235  -3.450  -1.581  1.00  0.00     0.107 C 
HETATM    4  C4  UNL     1       0.202  -2.871  -1.786  1.00  0.00     0.019 C 
HETATM    5  C5  UNL     1       0.267  -1.345  -1.929  1.00  0.00     0.052 A 
HETATM    6  C6  UNL     1      -0.601  -0.877  -3.025  1.00  0.00     0.152 C 
HETATM    7  O1  UNL     1      -0.351   0.056  -3.752  1.00  0.00    -0.296 OA
HETATM    8  C7  UNL     1       1.547  -0.605  -1.524  1.00  0.00     0.007 A 
HETATM    9  C8  UNL     1       2.678  -1.403  -0.843  1.00  0.00     0.000 C 
HETATM   10  C9  UNL     1       2.645  -2.900  -1.189  1.00  0.00     0.000 C 
HETATM   11  C10 UNL     1       1.264  -3.473  -0.848  1.00  0.00     0.001 C 
HETATM   12  C11 UNL     1       4.079  -0.761  -1.005  1.00  0.00     0.000 C 
HETATM   13  C12 UNL     1       3.964   0.768  -0.722  1.00  0.00     0.000 C 
HETATM   14  C13 UNL     1       3.226   1.426  -1.897  1.00  0.00     0.000 C 
HETATM   15  C14 UNL     1       1.971   0.635  -2.328  1.00  0.00     0.000 C 
HETATM   16  C15 UNL     1       5.446   1.191  -0.559  1.00  0.00     0.000 C 
HETATM   17  C16 UNL     1       6.055   0.039   0.264  1.00  0.00     0.000 C 
HETATM   18  C17 UNL     1       5.134  -1.184   0.048  1.00  0.00     0.000 C 
HETATM   19  C27 UNL     1       3.186   1.109   0.573  1.00  0.00     0.000 C 
HETATM   20  C28 UNL     1       4.660  -1.134  -2.396  1.00  0.00     0.000 C 
HETATM   21  C29 UNL     1       0.275  -0.480  -0.700  1.00  0.00     0.007 A 
HETATM   22  C30 UNL     1      -1.531  -3.877  -0.126  1.00  0.00     0.013 C 
HETATM   23  O4  UNL     1      -2.524  -1.473  -1.001  1.00  0.00    -0.222 OA
ENDROOT
BRANCH  16  24
HETATM   24  C18 UNL     1       5.775   2.665  -0.208  1.00  0.00     0.000 C 
HETATM   25  C26 UNL     1       6.636   3.292  -1.333  1.00  0.00     0.000 C 
BRANCH  24  26
HETATM   26  C19 UNL     1       6.476   2.941   1.142  1.00  0.00     0.004 C 
BRANCH  26  27
HETATM   27  C20 UNL     1       5.555   2.889   2.372  1.00  0.00     0.022 C 
BRANCH  27  28
HETATM   28  C21 UNL     1       6.172   3.184   3.730  1.00  0.00    -0.045 C 
HETATM   29  C25 UNL     1       7.399   3.715   3.864  1.00  0.00    -0.009 C 
BRANCH  28  30
HETATM   30  C22 UNL     1       5.285   2.853   4.926  1.00  0.00     0.018 C 
HETATM   31  C23 UNL     1       5.988   2.903   6.295  1.00  0.00     0.004 C 
HETATM   32  C24 UNL     1       4.039   3.756   4.963  1.00  0.00     0.004 C 
ENDBRANCH  28  30
ENDBRANCH  27  28
ENDBRANCH  26  27
ENDBRANCH  24  26
ENDBRANCH  16  24
BRANCH   3  33
HETATM   33  C31 UNL     1      -1.318  -4.758  -2.392  1.00  0.00     0.187 C 
HETATM   34  O2  UNL     1      -0.513  -5.659  -2.369  1.00  0.00    -0.647 OA
HETATM   35  O3  UNL     1      -2.409  -4.857  -3.171  1.00  0.00    -0.647 OA
ENDBRANCH   3  33
TORSDOF 6
