REMARK  4 active torsions:
REMARK  status: ('A' for Active; 'I' for Inactive)
REMARK    1  A    between atoms: C13_14  and  O5_24 
REMARK    2  A    between atoms: O5_24  and  C20_25 
REMARK    3  A    between atoms: C20_25  and  C21_26 
REMARK    4  A    between atoms: C21_26  and  C22_27 
ROOT
HETATM    1  C1  UNL     1      -2.181   0.371  -1.096  1.00  0.00    -0.005 A 
HETATM    2  C2  UNL     1      -2.202  -0.964  -1.086  1.00  0.00    -0.005 A 
HETATM    3  C3  UNL     1      -1.086  -1.648  -0.802  1.00  0.00    -0.026 A 
HETATM    4  C4  UNL     1       0.055  -0.970  -0.536  1.00  0.00    -0.028 A 
HETATM    5  C5  UNL     1       0.091   0.389  -0.541  1.00  0.00    -0.026 A 
HETATM    6  C6  UNL     1      -1.055   1.053  -0.828  1.00  0.00    -0.026 A 
HETATM    7  C7  UNL     1      -1.167   2.557  -0.872  1.00  0.00     0.031 C 
HETATM    8  C8  UNL     1       1.410   1.141  -0.250  1.00  0.00     0.083 C 
HETATM    9  C9  UNL     1       2.410   0.331   0.519  1.00  0.00     0.065 C 
HETATM   10  C10 UNL     1       2.586  -1.029  -0.145  1.00  0.00     0.131 C 
HETATM   11  C11 UNL     1       1.277  -1.805  -0.193  1.00  0.00     0.056 C 
HETATM   12  O1  UNL     1       3.036  -0.938  -1.468  1.00  0.00    -0.302 OA
HETATM   13  C12 UNL     1       3.986  -0.042  -1.831  1.00  0.00     0.300 C 
HETATM   14  C13 UNL     1       4.710   0.585  -0.650  1.00  0.00     0.210 C 
HETATM   15  C14 UNL     1       3.695   1.280   0.274  1.00  0.00     0.045 C 
HETATM   16  C15 UNL     1       3.432   2.865  -0.109  1.00  0.00     0.039 C 
HETATM   17  C16 UNL     1       2.039   3.509   0.379  1.00  0.00     0.206 C 
HETATM   18  C17 UNL     1       1.530   2.196   0.869  1.00  0.00     0.251 C 
HETATM   19  O2  UNL     1       2.497   2.282   2.013  1.00  0.00    -0.192 OA
HETATM   20  O3  UNL     1       0.731   1.655   1.866  1.00  0.00    -0.330 OA
HETATM   21  C18 UNL     1       1.427   0.360   1.818  1.00  0.00     0.148 C 
HETATM   22  O4  UNL     1       1.317   4.035  -0.699  1.00  0.00    -0.218 OA
HETATM   23  C19 UNL     1       3.752   3.280  -1.564  1.00  0.00     0.003 C 
HETATM   24  O7  UNL     1       4.287   0.170  -2.987  1.00  0.00    -0.262 OA
HETATM   25  C25 UNL     1      -1.164  -3.163  -0.782  1.00  0.00     0.031 C 
ENDROOT
BRANCH  14  26
HETATM   26  O5  UNL     1       5.455  -0.390   0.056  1.00  0.00    -0.294 OA
BRANCH  26  27
HETATM   27  C20 UNL     1       6.652  -0.780  -0.459  1.00  0.00     0.272 C 
HETATM   28  O6  UNL     1       7.130  -0.334  -1.478  1.00  0.00    -0.264 OA
BRANCH  27  29
HETATM   29  C21 UNL     1       7.319  -1.839   0.415  1.00  0.00     0.086 C 
HETATM   30  C24 UNL     1       8.598  -2.364  -0.265  1.00  0.00     0.010 C 
BRANCH  29  31
HETATM   31  C22 UNL     1       6.375  -3.009   0.765  1.00  0.00     0.010 C 
HETATM   32  C23 UNL     1       5.631  -2.816   2.095  1.00  0.00     0.001 C 
ENDBRANCH  29  31
ENDBRANCH  27  29
ENDBRANCH  26  27
ENDBRANCH  14  26
TORSDOF 4
