REMARK  3 active torsions:
REMARK  status: ('A' for Active; 'I' for Inactive)
REMARK    1  A    between atoms: C1_1  and  O5_28 
REMARK    2  A    between atoms: C2_2  and  O4_26 
REMARK    3  A    between atoms: C17_20  and  C18_21 
ROOT
HETATM    1  C1  UNL     1       0.039   1.183   0.539  1.00  0.00     0.116 A 
HETATM    2  C2  UNL     1      -0.271   0.034  -0.122  1.00  0.00     0.118 A 
HETATM    3  C3  UNL     1       0.708  -0.619  -0.791  1.00  0.00     0.043 A 
HETATM    4  C4  UNL     1       1.978  -0.187  -0.821  1.00  0.00     0.056 A 
HETATM    5  C5  UNL     1       2.244   0.907  -0.131  1.00  0.00    -0.000 A 
HETATM    6  C6  UNL     1       1.322   1.596   0.540  1.00  0.00     0.024 A 
HETATM    7  C7  UNL     1       3.702   1.053  -0.165  1.00  0.00     0.078 C 
HETATM    8  C8  UNL     1       4.256   0.381  -1.389  1.00  0.00     0.195 C 
HETATM    9  N1  UNL     1       3.052  -0.614  -1.365  1.00  0.00    -0.327 N 
HETATM   10  C9  UNL     1       2.826  -1.822  -2.214  1.00  0.00     0.128 C 
HETATM   11  C10 UNL     1       5.423  -0.452  -1.902  1.00  0.00     0.267 C 
HETATM   12  N2  UNL     1       6.420   0.633  -2.044  1.00  0.00     0.169 N 
HETATM   13  C11 UNL     1       5.777   1.872  -1.478  1.00  0.00     0.339 C 
HETATM   14  C12 UNL     1       4.276   2.302  -1.124  1.00  0.00     0.073 C 
HETATM   15  O1  UNL     1       5.365   1.008  -0.542  1.00  0.00    -0.312 OA
HETATM   16  C13 UNL     1       7.578   0.220  -1.183  1.00  0.00     0.275 C 
HETATM   17  C14 UNL     1       7.186  -0.150   0.308  1.00  0.00    -0.015 C 
HETATM   18  C15 UNL     1       5.803  -0.856   0.569  1.00  0.00     0.033 C 
HETATM   19  C16 UNL     1       5.640  -1.542  -0.809  1.00  0.00     0.043 C 
HETATM   20  C17 UNL     1       4.476   0.052   1.000  1.00  0.00     0.099 C 
HETATM   21  C19 UNL     1       7.995   0.229   1.314  1.00  0.00    -0.032 C 
HETATM   22  C20 UNL     1       7.745   0.046   2.788  1.00  0.00     0.030 C 
ENDROOT
BRANCH  20  23
HETATM   23  C18 UNL     1       3.462  -0.862   1.684  1.00  0.00     0.185 C 
HETATM   24  O2  UNL     1       3.282  -2.038   1.480  1.00  0.00    -0.647 OA
HETATM   25  O3  UNL     1       2.746  -0.207   2.618  1.00  0.00    -0.647 OA
ENDBRANCH  20  23
BRANCH   1  26
HETATM   26  O5  UNL     1      -0.847   1.932   1.283  1.00  0.00    -0.326 OA
HETATM   27  C22 UNL     1      -1.821   1.269   2.056  1.00  0.00     0.181 C 
ENDBRANCH   1  26
BRANCH   2  28
HETATM   28  O4  UNL     1      -1.579  -0.395  -0.126  1.00  0.00    -0.326 OA
HETATM   29  C21 UNL     1      -1.976  -1.446  -0.975  1.00  0.00     0.181 C 
ENDBRANCH   2  28
TORSDOF 3
