REMARK  5 active torsions:
REMARK  status: ('A' for Active; 'I' for Inactive)
REMARK    1  A    between atoms: C1_1  and  C2_2 
REMARK    2  A    between atoms: C1_1  and  C3_5 
REMARK    3  A    between atoms: C3_5  and  S1_6 
REMARK    4  A    between atoms: S1_6  and  C4_7 
REMARK    5  A    between atoms: C4_7  and  C5_8 
ROOT
HETATM    1  C1  UNL     1      -1.853   1.859   0.105  1.00  0.00     0.398 C 
HETATM    2  N1  UNL     1      -2.553   1.530  -1.147  1.00  0.00     0.629 N 
ENDROOT
BRANCH   1   3
HETATM    3  C2  UNL     1      -1.677   3.363   0.190  1.00  0.00     0.225 C 
HETATM    4  O1  UNL     1      -2.862   3.998   0.119  1.00  0.00    -0.646 OA
HETATM    5  O2  UNL     1      -0.640   3.969   0.312  1.00  0.00    -0.646 OA
ENDBRANCH   1   3
BRANCH   1   6
HETATM    6  C3  UNL     1      -0.520   1.093   0.172  1.00  0.00     0.108 C 
BRANCH   6   7
HETATM    7  S1  UNL     1      -0.876  -0.696   0.147  1.00  0.00    -0.137 SA
BRANCH   7   8
HETATM    8  C4  UNL     1       0.844  -1.301   0.165  1.00  0.00     0.058 C 
BRANCH   8   9
HETATM    9  C5  UNL     1       0.829  -2.838   0.160  1.00  0.00     0.012 C 
HETATM   10  C6  UNL     1       2.252  -3.415   0.153  1.00  0.00     0.001 C 
ENDBRANCH   8   9
ENDBRANCH   7   8
ENDBRANCH   6   7
ENDBRANCH   1   6
TORSDOF 5
