REMARK  3 active torsions:
REMARK  status: ('A' for Active; 'I' for Inactive)
REMARK    1  A    between atoms: C5_5  and  C9_9 
REMARK    2  A    between atoms: C10_10  and  C11_11 
REMARK    3  A    between atoms: C12_12  and  C13_13 
ROOT
HETATM    1  C1  UNL     1       1.447  -1.572   1.983  1.00  0.00     0.155 C 
HETATM    2  C2  UNL     1       0.659  -0.942   3.132  1.00  0.00     0.036 C 
HETATM    3  C3  UNL     1       0.018   0.392   2.727  1.00  0.00     0.036 C 
HETATM    4  C4  UNL     1      -0.867   0.258   1.480  1.00  0.00     0.156 C 
HETATM    5  C5  UNL     1      -0.126  -0.452   0.327  1.00  0.00     0.173 C 
HETATM    6  C6  UNL     1       0.612  -1.767   0.701  1.00  0.00     0.060 C 
HETATM    7  C7  UNL     1       1.532  -2.242  -0.456  1.00  0.00     0.005 C 
HETATM    8  C8  UNL     1      -0.353  -2.962   0.918  1.00  0.00     0.005 C 
HETATM    9  O3  UNL     1      -1.098  -0.719  -0.659  1.00  0.00    -0.219 OA
HETATM   10  C15 UNL     1      -2.234  -0.323   1.872  1.00  0.00     0.036 C 
HETATM   11  O4  UNL     1      -1.156   1.552   1.002  1.00  0.00    -0.223 OA
HETATM   12  O5  UNL     1       2.597  -0.787   1.742  1.00  0.00    -0.223 OA
ENDROOT
BRANCH   5  13
HETATM   13  C9  UNL     1       0.864   0.535  -0.282  1.00  0.00     0.006 C 
HETATM   14  C10 UNL     1       1.054   0.758  -1.598  1.00  0.00    -0.006 C 
BRANCH  14  15
HETATM   15  C11 UNL     1       2.024   1.730  -2.140  1.00  0.00    -0.016 C 
HETATM   16  C12 UNL     1       1.856   2.105  -3.436  1.00  0.00     0.066 C 
HETATM   17  C14 UNL     1       3.167   2.241  -1.293  1.00  0.00     0.031 C 
BRANCH  16  18
HETATM   18  C13 UNL     1       2.682   3.079  -4.189  1.00  0.00     0.211 C 
HETATM   19  O1  UNL     1       2.457   3.313  -5.499  1.00  0.00    -0.644 OA
HETATM   20  O2  UNL     1       3.570   3.741  -3.666  1.00  0.00    -0.644 OA
ENDBRANCH  16  18
ENDBRANCH  14  15
ENDBRANCH   5  13
TORSDOF 3
