REMARK  5 active torsions:
REMARK  status: ('A' for Active; 'I' for Inactive)
REMARK    1  A    between atoms: C4_4  and  C6_6 
REMARK    2  A    between atoms: C23_24  and  O2_28 
REMARK    3  A    between atoms: O2_28  and  C27_29 
REMARK    4  A    between atoms: C30_33  and  O5_36 
REMARK    5  A    between atoms: O5_36  and  C32_37 
ROOT
HETATM    1  C1  UNL     1       2.962   4.358  -0.714  1.00  0.00     0.001 C 
HETATM    2  C2  UNL     1       2.739   3.571  -2.035  1.00  0.00     0.005 C 
HETATM    3  C3  UNL     1       4.174   3.015  -2.195  1.00  0.00     0.037 C 
HETATM    4  C4  UNL     1       5.181   4.111  -1.781  1.00  0.00     0.054 C 
HETATM    5  C5  UNL     1       4.340   5.032  -0.867  1.00  0.00     0.007 C 
HETATM    6  C8  UNL     1       5.764   4.893  -2.973  1.00  0.00     0.007 C 
HETATM    7  C9  UNL     1       4.319   2.212  -3.481  1.00  0.00     0.152 C 
HETATM    8  C10 UNL     1       3.433   0.966  -3.351  1.00  0.00     0.033 C 
HETATM    9  C11 UNL     1       1.929   1.204  -3.005  1.00  0.00     0.005 C 
HETATM   10  C12 UNL     1       1.776   2.349  -1.935  1.00  0.00     0.031 C 
HETATM   11  C13 UNL     1       0.296   2.666  -1.700  1.00  0.00     0.152 C 
HETATM   12  C14 UNL     1      -0.408   1.437  -1.136  1.00  0.00     0.033 C 
HETATM   13  C15 UNL     1      -0.258   0.184  -2.022  1.00  0.00     0.003 C 
HETATM   14  C16 UNL     1       1.224  -0.118  -2.441  1.00  0.00     0.000 C 
HETATM   15  C17 UNL     1       1.113  -1.243  -3.506  1.00  0.00     0.000 C 
HETATM   16  C18 UNL     1       0.378  -2.503  -3.011  1.00  0.00     0.000 C 
HETATM   17  C19 UNL     1      -1.049  -2.211  -2.508  1.00  0.00     0.002 C 
HETATM   18  C20 UNL     1      -1.116  -1.024  -1.504  1.00  0.00     0.000 C 
HETATM   19  C21 UNL     1      -2.623  -0.617  -1.441  1.00  0.00     0.003 C 
HETATM   20  C22 UNL     1      -3.639  -1.769  -1.574  1.00  0.00     0.030 C 
HETATM   21  C23 UNL     1      -3.082  -3.147  -1.204  1.00  0.00     0.118 C 
HETATM   22  C24 UNL     1      -1.886  -3.485  -2.139  1.00  0.00     0.025 C 
HETATM   23  C25 UNL     1      -1.038  -4.647  -1.567  1.00  0.00     0.002 C 
HETATM   24  C26 UNL     1      -2.478  -4.066  -3.458  1.00  0.00     0.002 C 
HETATM   25  C38 UNL     1      -0.649  -1.388  -0.079  1.00  0.00     0.000 C 
HETATM   26  C39 UNL     1       2.083  -0.730  -1.295  1.00  0.00     0.000 C 
HETATM   27  O11 UNL     1       0.117   3.706  -0.767  1.00  0.00    -0.224 OA
HETATM   28  C40 UNL     1       1.298   1.614  -4.366  1.00  0.00     0.000 C 
HETATM   29  O12 UNL     1       5.653   1.790  -3.679  1.00  0.00    -0.224 OA
HETATM   30  C41 UNL     1       2.296   4.604  -3.094  1.00  0.00     0.000 C 
ENDROOT
BRANCH  21  31
HETATM   31  O2  UNL     1      -2.731  -3.106   0.155  1.00  0.00    -0.332 OA
BRANCH  31  32
HETATM   32  C27 UNL     1      -3.124  -4.194   0.957  1.00  0.00     0.270 C 
HETATM   33  O3  UNL     1      -4.514  -4.112   1.175  1.00  0.00    -0.326 OA
HETATM   34  C28 UNL     1      -4.899  -3.071   2.033  1.00  0.00     0.180 C 
HETATM   35  C29 UNL     1      -4.284  -3.254   3.406  1.00  0.00     0.211 C 
HETATM   36  C30 UNL     1      -2.766  -3.239   3.333  1.00  0.00     0.186 C 
HETATM   37  O10 UNL     1      -4.712  -4.488   3.941  1.00  0.00    -0.218 OA
HETATM   38  C31 UNL     1      -2.326  -4.228   2.254  1.00  0.00     0.238 C 
HETATM   39  O4  UNL     1      -2.452  -5.528   2.789  1.00  0.00    -0.215 OA
BRANCH  36  40
HETATM   40  O5  UNL     1      -2.308  -1.940   3.047  1.00  0.00    -0.326 OA
BRANCH  40  41
HETATM   41  C32 UNL     1      -1.324  -1.450   3.940  1.00  0.00     0.270 C 
HETATM   42  O6  UNL     1      -1.951  -1.162   5.173  1.00  0.00    -0.329 OA
HETATM   43  C33 UNL     1      -2.828  -0.065   5.163  1.00  0.00     0.151 C 
HETATM   44  C34 UNL     1      -2.150   1.196   4.649  1.00  0.00     0.212 C 
HETATM   45  C37 UNL     1      -3.341   0.121   6.593  1.00  0.00     0.035 C 
HETATM   46  C35 UNL     1      -1.556   0.949   3.278  1.00  0.00     0.220 C 
HETATM   47  O9  UNL     1      -3.073   2.253   4.537  1.00  0.00    -0.218 OA
HETATM   48  C36 UNL     1      -0.621  -0.234   3.374  1.00  0.00     0.241 C 
HETATM   49  O8  UNL     1      -0.836   2.087   2.873  1.00  0.00    -0.218 OA
HETATM   50  O7  UNL     1       0.472   0.120   4.189  1.00  0.00    -0.215 OA
ENDBRANCH  40  41
ENDBRANCH  36  40
ENDBRANCH  31  32
ENDBRANCH  21  31
BRANCH   4  51
HETATM   51  C6  UNL     1       6.337   3.417  -1.044  1.00  0.00     0.150 C 
HETATM   52  O1  UNL     1       7.223   2.900  -1.688  1.00  0.00    -0.296 OA
HETATM   53  C7  UNL     1       6.333   3.251   0.466  1.00  0.00     0.072 C 
ENDBRANCH   4  51
TORSDOF 5
