REMARK  2 active torsions:
REMARK  status: ('A' for Active; 'I' for Inactive)
REMARK    1  A    between atoms: C8_8  and  C20_25 
REMARK    2  A    between atoms: C12_12  and  C14_16 
ROOT
HETATM    1  C1  UNL     1      -0.080  -1.876  -2.165  1.00  0.00     0.181 C 
HETATM    2  C2  UNL     1       0.174  -1.003  -0.946  1.00  0.00     0.174 C 
HETATM    3  C3  UNL     1       1.662  -0.734  -0.815  1.00  0.00     0.157 C 
HETATM    4  C4  UNL     1       2.434  -2.031  -0.589  1.00  0.00     0.033 C 
HETATM    5  C5  UNL     1       2.147  -3.023  -1.734  1.00  0.00     0.005 C 
HETATM    6  C6  UNL     1       0.642  -3.223  -2.016  1.00  0.00     0.033 C 
HETATM    7  C7  UNL     1       0.448  -4.104  -3.262  1.00  0.00     0.003 C 
HETATM    8  C8  UNL     1       1.606   0.360   0.261  1.00  0.00     0.069 C 
HETATM    9  C9  UNL     1       0.703   1.431  -0.481  1.00  0.00     0.069 C 
HETATM   10  C10 UNL     1      -0.422   0.394  -0.834  1.00  0.00     0.163 C 
HETATM   11  C11 UNL     1      -1.363   0.409   0.388  1.00  0.00     0.106 C 
HETATM   12  C12 UNL     1      -1.425   1.917   0.789  1.00  0.00     0.161 C 
HETATM   13  C13 UNL     1      -0.344   2.525  -0.125  1.00  0.00     0.183 C 
HETATM   14  O1  UNL     1       0.220   3.739   0.342  1.00  0.00    -0.221 OA
HETATM   15  O2  UNL     1      -2.650   2.443   0.334  1.00  0.00    -0.223 OA
HETATM   16  C17 UNL     1      -2.762  -0.187   0.103  1.00  0.00     0.010 C 
HETATM   17  C18 UNL     1      -0.496  -0.623   1.124  1.00  0.00     0.224 C 
HETATM   18  C19 UNL     1       0.892  -0.177   1.538  1.00  0.00     0.065 C 
HETATM   19  O3  UNL     1      -0.290  -1.647   0.193  1.00  0.00    -0.330 OA
HETATM   20  O4  UNL     1      -1.169  -1.350   2.122  1.00  0.00    -0.195 OA
HETATM   21  O5  UNL     1      -1.083   0.710  -2.029  1.00  0.00    -0.223 OA
HETATM   22  O7  UNL     1       2.131  -0.160  -2.013  1.00  0.00    -0.223 OA
HETATM   23  O8  UNL     1      -1.464  -2.065  -2.327  1.00  0.00    -0.221 OA
ENDROOT
BRANCH  12  24
HETATM   24  C14 UNL     1      -1.317   2.351   2.272  1.00  0.00     0.031 C 
HETATM   25  C15 UNL     1      -2.030   1.427   3.274  1.00  0.00     0.003 C 
HETATM   26  C16 UNL     1      -1.877   3.770   2.546  1.00  0.00     0.003 C 
ENDBRANCH  12  24
BRANCH   8  27
HETATM   27  C20 UNL     1       3.019   0.831   0.652  1.00  0.00     0.185 C 
HETATM   28  O6  UNL     1       3.724   1.297  -0.478  1.00  0.00    -0.221 OA
ENDBRANCH   8  27
TORSDOF 2
