REMARK  2 active torsions:
REMARK  status: ('A' for Active; 'I' for Inactive)
REMARK    1  A    between atoms: N1_21  and  C20_23 
REMARK    2  A    between atoms: C20_23  and  C21_24 
ROOT
HETATM    1  C1  UNL     1      -2.530   1.551   1.663  1.00  0.00     0.000 C 
HETATM    2  C2  UNL     1      -3.143   0.156   1.851  1.00  0.00     0.002 C 
HETATM    3  C3  UNL     1      -2.150  -1.016   1.609  1.00  0.00     0.032 C 
HETATM    4  C4  UNL     1      -0.714  -0.455   1.463  1.00  0.00     0.006 C 
HETATM    5  C5  UNL     1      -0.667   0.462   0.213  1.00  0.00     0.032 C 
HETATM    6  C6  UNL     1      -1.671   1.642   0.395  1.00  0.00     0.002 C 
HETATM    7  C7  UNL     1       0.773   1.037   0.060  1.00  0.00     0.007 C 
HETATM    8  C8  UNL     1       1.977   0.059   0.179  1.00  0.00     0.060 C 
HETATM    9  C9  UNL     1       1.794  -0.829   1.414  1.00  0.00     0.155 C 
HETATM   10  C10 UNL     1       0.421  -1.497   1.474  1.00  0.00     0.033 C 
HETATM   11  O1  UNL     1       2.793  -1.822   1.462  1.00  0.00    -0.223 OA
HETATM   12  C11 UNL     1       3.234   0.952   0.334  1.00  0.00     0.173 C 
HETATM   13  C12 UNL     1       3.446   1.712  -0.951  1.00  0.00    -0.015 C 
HETATM   14  C13 UNL     1       2.274   1.610  -1.899  1.00  0.00     0.021 C 
HETATM   15  C14 UNL     1       0.998   1.997  -1.131  1.00  0.00     0.004 C 
HETATM   16  C15 UNL     1       2.161   0.147  -2.353  1.00  0.00     0.004 C 
HETATM   17  C16 UNL     1       2.207  -0.762  -1.114  1.00  0.00     0.006 C 
HETATM   18  C17 UNL     1       4.561   2.405  -1.224  1.00  0.00    -0.007 C 
HETATM   19  O2  UNL     1       4.376   0.174   0.639  1.00  0.00    -0.219 OA
HETATM   20  C18 UNL     1      -1.143  -0.355  -1.015  1.00  0.00     0.251 C 
HETATM   21  N1  UNL     1      -2.488  -0.892  -0.856  1.00  0.00     0.145 N 
HETATM   22  C19 UNL     1      -2.548  -1.758   0.312  1.00  0.00     0.251 C 
HETATM   23  C22 UNL     1      -2.266  -2.010   2.787  1.00  0.00     0.002 C 
ENDROOT
BRANCH  21  24
HETATM   24  C20 UNL     1      -2.942  -1.591  -2.055  1.00  0.00     0.322 C 
BRANCH  24  25
HETATM   25  C21 UNL     1      -3.244  -0.614  -3.180  1.00  0.00     0.243 C 
HETATM   26  O3  UNL     1      -4.372  -0.266  -3.445  1.00  0.00    -0.286 OA
ENDBRANCH  24  25
ENDBRANCH  21  24
TORSDOF 2
