REMARK  2 active torsions:
REMARK  status: ('A' for Active; 'I' for Inactive)
REMARK    1  A    between atoms: N1_19  and  C19_21 
REMARK    2  A    between atoms: C19_21  and  C20_22 
ROOT
HETATM    1  C1  UNL     1      -2.885   1.759   0.545  1.00  0.00     0.001 C 
HETATM    2  C2  UNL     1      -3.401   0.391   1.020  1.00  0.00     0.006 C 
HETATM    3  C3  UNL     1      -2.272  -0.653   1.145  1.00  0.00     0.049 C 
HETATM    4  C4  UNL     1      -0.929   0.068   1.264  1.00  0.00    -0.007 C 
HETATM    5  C5  UNL     1      -0.589   0.841  -0.025  1.00  0.00     0.047 C 
HETATM    6  C6  UNL     1      -1.823   1.605  -0.549  1.00  0.00     0.006 C 
HETATM    7  C7  UNL     1       0.642   1.829   0.147  1.00  0.00     0.006 C 
HETATM    8  C8  UNL     1       1.670   0.791   0.629  1.00  0.00     0.013 C 
HETATM    9  C9  UNL     1       1.314   0.398   2.102  1.00  0.00     0.069 C 
HETATM   10  C10 UNL     1      -0.169   0.565   2.450  1.00  0.00     0.165 C 
HETATM   11  O1  UNL     1      -0.634   0.957   3.494  1.00  0.00    -0.292 OA
HETATM   12  C11 UNL     1       3.110   1.363   0.772  1.00  0.00     0.022 C 
HETATM   13  C12 UNL     1       3.602   2.017  -0.480  1.00  0.00    -0.044 C 
HETATM   14  C13 UNL     1       2.641   1.753  -1.598  1.00  0.00     0.018 C 
HETATM   15  C14 UNL     1       1.314   2.485  -1.123  1.00  0.00     0.004 C 
HETATM   16  C15 UNL     1       2.570   0.169  -1.629  1.00  0.00     0.006 C 
HETATM   17  C16 UNL     1       1.413  -0.166  -0.649  1.00  0.00     0.033 C 
HETATM   18  C17 UNL     1      -0.133  -0.370  -0.904  1.00  0.00     0.223 C 
HETATM   19  N1  UNL     1      -0.691  -1.679  -0.543  1.00  0.00     0.138 N 
HETATM   20  C18 UNL     1      -2.103  -1.528  -0.154  1.00  0.00     0.254 C 
HETATM   21  C21 UNL     1       4.738   2.719  -0.584  1.00  0.00    -0.009 C 
HETATM   22  C22 UNL     1      -2.541  -1.570   2.357  1.00  0.00     0.006 C 
ENDROOT
BRANCH  19  23
HETATM   23  C19 UNL     1      -0.449  -2.658  -1.593  1.00  0.00     0.285 C 
BRANCH  23  24
HETATM   24  C20 UNL     1      -0.729  -4.092  -1.146  1.00  0.00     0.218 C 
HETATM   25  O2  UNL     1      -0.164  -4.992  -2.078  1.00  0.00    -0.218 OA
ENDBRANCH  23  24
ENDBRANCH  19  23
TORSDOF 2
