REMARK  2 active torsions:
REMARK  status: ('A' for Active; 'I' for Inactive)
REMARK    1  A    between atoms: N1_18  and  C18_20 
REMARK    2  A    between atoms: C18_20  and  C19_21 
ROOT
HETATM    1  C1  UNL     1      -1.662  -1.620   2.302  1.00  0.00     0.000 C 
HETATM    2  C2  UNL     1      -1.825  -2.698   1.225  1.00  0.00     0.002 C 
HETATM    3  C3  UNL     1      -1.515  -2.183  -0.193  1.00  0.00     0.034 C 
HETATM    4  C4  UNL     1      -0.075  -1.641  -0.251  1.00  0.00     0.034 C 
HETATM    5  C5  UNL     1       0.142  -0.520   0.790  1.00  0.00     0.032 C 
HETATM    6  C6  UNL     1       1.649  -0.011   0.938  1.00  0.00     0.003 C 
HETATM    7  C7  UNL     1       1.854   0.352  -0.532  1.00  0.00     0.008 C 
HETATM    8  C8  UNL     1       1.945  -0.995  -1.332  1.00  0.00     0.033 C 
HETATM    9  C9  UNL     1       1.247  -2.226  -0.690  1.00  0.00     0.152 C 
HETATM   10  O1  UNL     1       1.127  -3.246  -1.651  1.00  0.00    -0.224 OA
HETATM   11  C10 UNL     1       3.216   1.041  -0.825  1.00  0.00     0.022 C 
HETATM   12  C11 UNL     1       3.449   2.250   0.027  1.00  0.00    -0.044 C 
HETATM   13  C12 UNL     1       2.209   2.579   0.799  1.00  0.00     0.018 C 
HETATM   14  C13 UNL     1       1.998   1.313   1.728  1.00  0.00     0.004 C 
HETATM   15  C14 UNL     1       1.129   2.765  -0.340  1.00  0.00     0.006 C 
HETATM   16  C15 UNL     1       0.569   1.332  -0.524  1.00  0.00     0.032 C 
HETATM   17  C16 UNL     1      -0.683   0.606   0.087  1.00  0.00     0.219 C 
HETATM   18  N1  UNL     1      -1.653   0.232  -0.940  1.00  0.00     0.138 N 
HETATM   19  C17 UNL     1      -2.429  -0.952  -0.559  1.00  0.00     0.250 C 
HETATM   20  C20 UNL     1       4.595   2.943   0.074  1.00  0.00    -0.009 C 
HETATM   21  C21 UNL     1      -0.285  -0.966   2.200  1.00  0.00     0.002 C 
HETATM   22  C22 UNL     1      -1.772  -3.338  -1.184  1.00  0.00     0.002 C 
ENDROOT
BRANCH  18  23
HETATM   23  C18 UNL     1      -2.446   1.360  -1.410  1.00  0.00     0.285 C 
BRANCH  23  24
HETATM   24  C19 UNL     1      -3.320   2.081  -0.385  1.00  0.00     0.218 C 
HETATM   25  O2  UNL     1      -4.056   3.091  -1.048  1.00  0.00    -0.218 OA
ENDBRANCH  23  24
ENDBRANCH  18  23
TORSDOF 2
