REMARK  0 active torsions:
REMARK  status: ('A' for Active; 'I' for Inactive)
ROOT
HETATM    1  C1  UNL     1      -2.161  -1.281   2.481  1.00  0.00     0.008 C 
HETATM    2  C2  UNL     1      -1.518  -1.920   1.231  1.00  0.00     0.074 C 
HETATM    3  C3  UNL     1      -0.152  -1.286   0.961  1.00  0.00    -0.005 C 
HETATM    4  C4  UNL     1      -0.268   0.226   0.677  1.00  0.00     0.048 C 
HETATM    5  C5  UNL     1      -1.241   0.917   1.654  1.00  0.00     0.006 C 
HETATM    6  C6  UNL     1      -1.498   0.044   2.884  1.00  0.00     0.001 C 
HETATM    7  C7  UNL     1       1.135   0.974   0.689  1.00  0.00     0.010 C 
HETATM    8  C8  UNL     1       1.829   0.098  -0.370  1.00  0.00     0.027 C 
HETATM    9  C9  UNL     1       2.180  -1.261   0.315  1.00  0.00     0.073 C 
HETATM   10  C10 UNL     1       1.214  -1.672   1.428  1.00  0.00     0.166 C 
HETATM   11  O1  UNL     1       1.489  -2.250   2.453  1.00  0.00    -0.292 OA
HETATM   12  C11 UNL     1       3.183   0.672  -0.776  1.00  0.00    -0.035 C 
HETATM   13  C12 UNL     1       3.228   1.930  -1.222  1.00  0.00    -0.049 C 
HETATM   14  C13 UNL     1       1.854   2.515  -1.349  1.00  0.00     0.018 C 
HETATM   15  C14 UNL     1       1.277   2.448   0.129  1.00  0.00     0.005 C 
HETATM   16  C15 UNL     1       1.187   1.493  -2.368  1.00  0.00     0.006 C 
HETATM   17  C16 UNL     1       0.647   0.360  -1.446  1.00  0.00     0.036 C 
HETATM   18  C17 UNL     1      -0.776   0.144  -0.797  1.00  0.00     0.226 C 
HETATM   19  N1  UNL     1      -1.468  -1.087  -1.195  1.00  0.00     0.164 N 
HETATM   20  C18 UNL     1      -2.275  -1.677  -0.118  1.00  0.00     0.340 C 
HETATM   21  O2  UNL     1      -3.436  -0.890  -0.037  1.00  0.00    -0.326 OA
HETATM   22  C19 UNL     1      -3.730  -0.506  -1.363  1.00  0.00     0.180 C 
HETATM   23  C20 UNL     1      -2.490  -0.841  -2.197  1.00  0.00     0.285 C 
HETATM   24  C21 UNL     1       4.453   2.674  -1.664  1.00  0.00     0.026 C 
HETATM   25  C22 UNL     1      -1.381  -3.442   1.475  1.00  0.00     0.009 C 
ENDROOT
TORSDOF 0
