REMARK  4 active torsions:
REMARK  status: ('A' for Active; 'I' for Inactive)
REMARK    1  A    between atoms: C9_9  and  O3_15 
REMARK    2  A    between atoms: C10_10  and  O1_11 
REMARK    3  A    between atoms: O1_11  and  C11_12 
REMARK    4  A    between atoms: O3_15  and  C13_16 
ROOT
HETATM    1  C1  UNL     1      -3.316   2.093   0.292  1.00  0.00     0.001 C 
HETATM    2  C2  UNL     1      -3.892   0.681   0.340  1.00  0.00     0.004 C 
HETATM    3  C3  UNL     1      -2.829  -0.420   0.651  1.00  0.00     0.053 C 
HETATM    4  C4  UNL     1      -1.379   0.166   0.626  1.00  0.00     0.040 C 
HETATM    5  C5  UNL     1      -1.236   0.936  -0.714  1.00  0.00     0.039 C 
HETATM    6  C6  UNL     1      -2.227   2.133  -0.782  1.00  0.00     0.006 C 
HETATM    7  C7  UNL     1       0.192   1.526  -0.894  1.00  0.00     0.008 C 
HETATM    8  C8  UNL     1       1.382   0.578  -0.621  1.00  0.00     0.032 C 
HETATM    9  C9  UNL     1       1.156  -0.117   0.731  1.00  0.00     0.152 C 
HETATM   10  C10 UNL     1      -0.201  -0.824   0.805  1.00  0.00     0.152 C 
HETATM   11  C15 UNL     1       2.671   1.442  -0.538  1.00  0.00     0.024 C 
HETATM   12  C16 UNL     1       2.854   2.184  -1.835  1.00  0.00    -0.044 C 
HETATM   13  C17 UNL     1       1.768   1.898  -2.842  1.00  0.00     0.018 C 
HETATM   14  C18 UNL     1       0.425   2.300  -2.213  1.00  0.00     0.004 C 
HETATM   15  C19 UNL     1       1.780   0.387  -3.122  1.00  0.00     0.004 C 
HETATM   16  C20 UNL     1       1.588  -0.392  -1.807  1.00  0.00     0.003 C 
HETATM   17  C21 UNL     1       3.885   3.009  -2.062  1.00  0.00    -0.009 C 
HETATM   18  C22 UNL     1      -1.618  -0.060  -1.799  1.00  0.00     0.069 C 
HETATM   19  N1  UNL     1      -2.340  -1.098  -1.752  1.00  0.00    -0.244 NA
HETATM   20  C23 UNL     1      -2.937  -1.478  -0.457  1.00  0.00     0.254 C 
HETATM   21  O5  UNL     1      -2.377  -2.716  -0.050  1.00  0.00    -0.196 OA
HETATM   22  C24 UNL     1      -3.240  -1.022   2.016  1.00  0.00     0.005 C 
ENDROOT
BRANCH   9  23
HETATM   23  O3  UNL     1       2.191  -1.034   0.962  1.00  0.00    -0.302 OA
BRANCH  23  24
HETATM   24  C13 UNL     1       2.974  -0.897   2.066  1.00  0.00     0.272 C 
HETATM   25  C14 UNL     1       4.013  -1.999   2.103  1.00  0.00     0.106 C 
HETATM   26  O4  UNL     1       2.868  -0.030   2.903  1.00  0.00    -0.264 OA
ENDBRANCH  23  24
ENDBRANCH   9  23
BRANCH  10  27
HETATM   27  O1  UNL     1      -0.285  -1.457   2.052  1.00  0.00    -0.302 OA
BRANCH  27  28
HETATM   28  C11 UNL     1      -0.006  -2.789   2.137  1.00  0.00     0.272 C 
HETATM   29  C12 UNL     1      -0.229  -3.283   3.553  1.00  0.00     0.106 C 
HETATM   30  O2  UNL     1       0.377  -3.491   1.228  1.00  0.00    -0.264 OA
ENDBRANCH  27  28
ENDBRANCH  10  27
TORSDOF 4
