REMARK  2 active torsions:
REMARK  status: ('A' for Active; 'I' for Inactive)
REMARK    1  A    between atoms: N1_19  and  C19_21 
REMARK    2  A    between atoms: C19_21  and  C20_22 
ROOT
HETATM    1  C1  UNL     1      -2.930   1.718   0.628  1.00  0.00     0.001 C 
HETATM    2  C2  UNL     1      -3.412   0.348   1.132  1.00  0.00     0.006 C 
HETATM    3  C3  UNL     1      -2.267  -0.682   1.232  1.00  0.00     0.049 C 
HETATM    4  C4  UNL     1      -0.928   0.053   1.309  1.00  0.00    -0.007 C 
HETATM    5  C5  UNL     1      -0.638   0.826   0.004  1.00  0.00     0.048 C 
HETATM    6  C6  UNL     1      -1.895   1.567  -0.493  1.00  0.00     0.006 C 
HETATM    7  C7  UNL     1       0.586   1.831   0.138  1.00  0.00     0.010 C 
HETATM    8  C8  UNL     1       1.628   0.803   0.616  1.00  0.00     0.027 C 
HETATM    9  C9  UNL     1       1.310   0.490   2.113  1.00  0.00     0.073 C 
HETATM   10  C10 UNL     1      -0.173   0.595   2.479  1.00  0.00     0.166 C 
HETATM   11  O1  UNL     1      -0.642   0.975   3.525  1.00  0.00    -0.292 OA
HETATM   12  C11 UNL     1       3.034   1.397   0.651  1.00  0.00    -0.035 C 
HETATM   13  C12 UNL     1       3.516   1.946  -0.467  1.00  0.00    -0.049 C 
HETATM   14  C13 UNL     1       2.576   1.759  -1.619  1.00  0.00     0.018 C 
HETATM   15  C14 UNL     1       1.245   2.486  -1.144  1.00  0.00     0.005 C 
HETATM   16  C15 UNL     1       2.484   0.173  -1.671  1.00  0.00     0.006 C 
HETATM   17  C16 UNL     1       1.352  -0.161  -0.657  1.00  0.00     0.036 C 
HETATM   18  C17 UNL     1      -0.193  -0.386  -0.878  1.00  0.00     0.223 C 
HETATM   19  N1  UNL     1      -0.722  -1.699  -0.490  1.00  0.00     0.138 N 
HETATM   20  C18 UNL     1      -2.124  -1.567  -0.063  1.00  0.00     0.254 C 
HETATM   21  C21 UNL     1       4.867   2.574  -0.637  1.00  0.00     0.026 C 
HETATM   22  C22 UNL     1      -2.491  -1.594   2.456  1.00  0.00     0.006 C 
ENDROOT
BRANCH  19  23
HETATM   23  C19 UNL     1      -0.496  -2.685  -1.537  1.00  0.00     0.285 C 
BRANCH  23  24
HETATM   24  C20 UNL     1      -0.746  -4.116  -1.063  1.00  0.00     0.218 C 
HETATM   25  O2  UNL     1      -0.194  -5.025  -1.995  1.00  0.00    -0.218 OA
ENDBRANCH  23  24
ENDBRANCH  19  23
TORSDOF 2
