REMARK  2 active torsions:
REMARK  status: ('A' for Active; 'I' for Inactive)
REMARK    1  A    between atoms: S1_2  and  C2_3 
REMARK    2  A    between atoms: C3_4  and  C4_5 
ROOT
HETATM    1  C2  UNL     1      -0.110  -0.254   0.002  1.00  0.00     0.062 C 
HETATM    2  C3  UNL     1       1.063   0.396   0.001  1.00  0.00     0.018 C 
ENDROOT
BRANCH   1   3
HETATM    3  S1  UNL     1      -1.669   0.613  -0.002  1.00  0.00     0.066 S 
HETATM    4  C1  UNL     1      -3.220  -0.256  -0.000  1.00  0.00     0.111 C 
HETATM    5  O2  UNL     1      -1.743   2.073  -0.000  1.00  0.00    -0.252 OA
ENDBRANCH   1   3
BRANCH   2   6
HETATM    6  C4  UNL     1       2.388  -0.318   0.001  1.00  0.00     0.209 C 
HETATM    7  O1  UNL     1       3.472   0.603   0.014  1.00  0.00    -0.215 OA
ENDBRANCH   2   6
TORSDOF 2
