REMARK  2 active torsions:
REMARK  status: ('A' for Active; 'I' for Inactive)
REMARK    1  A    between atoms: S1_2  and  C2_3 
REMARK    2  A    between atoms: C3_4  and  C4_5 
ROOT
HETATM    1  C2  UNL     1      -0.381  -0.028   0.000  1.00  0.00     0.036 C 
HETATM    2  C3  UNL     1       0.861   0.481   0.000  1.00  0.00     0.071 C 
ENDROOT
BRANCH   2   3
HETATM    3  C4  UNL     1       1.971  -0.297   0.000  1.00  0.00     0.297 C 
HETATM    4  N1  UNL     1       3.141   0.393   0.000  1.00  0.00    -0.102 N 
HETATM    5  O1  UNL     1       1.977  -1.503   0.000  1.00  0.00    -0.264 OA
ENDBRANCH   2   3
BRANCH   1   6
HETATM    6  S1  UNL     1      -1.849   1.045   0.000  1.00  0.00    -0.112 SA
HETATM    7  C1  UNL     1      -3.111  -0.258  -0.000  1.00  0.00     0.074 C 
ENDBRANCH   1   6
TORSDOF 2
