MODEL 1
REMARK VINA RESULT:      -0.0      0.000      0.000
REMARK  0 active torsions:
REMARK  status: ('A' for Active; 'I' for Inactive)
ROOT
ATOM      1  C1  <1> d           0.447   0.459   1.558  0.00  0.00    -0.000 C 
ATOM      2  C2  <1> d           1.512   1.555   1.266  0.00  0.00    -0.000 C 
ENDROOT
TORSDOF 0
ENDMDL
MODEL 2
REMARK VINA RESULT:      -0.0      0.489      1.550
REMARK  0 active torsions:
REMARK  status: ('A' for Active; 'I' for Inactive)
ROOT
ATOM      1  C1  <1> d           1.403   1.491   0.609  0.00  0.00    -0.000 C 
ATOM      2  C2  <1> d           0.554   0.595   1.557  0.00  0.00    -0.000 C 
ENDROOT
TORSDOF 0
ENDMDL
MODEL 3
REMARK VINA RESULT:      -0.0      1.084      1.084
REMARK  0 active torsions:
REMARK  status: ('A' for Active; 'I' for Inactive)
ROOT
ATOM      1  C1  <1> d           1.525   0.441   1.396  0.00  0.00    -0.000 C 
ATOM      2  C2  <1> d           0.520   1.495   0.846  0.00  0.00    -0.000 C 
ENDROOT
TORSDOF 0
ENDMDL
